data_image0
_chemical_formula_structural       La2ZrLi3O3La2ZrLi3O3
_chemical_formula_sum              "La4 Zr2 Li6 O6"
_cell_length_a       13.236
_cell_length_b       13.236
_cell_length_c       22.9893498
_cell_angle_alpha    90.0
_cell_angle_beta     90.0
_cell_angle_gamma    90.0

_space_group_name_H-M_alt    "P 1"
_space_group_IT_number       1

loop_
  _space_group_symop_operation_xyz
  'x, y, z'

loop_
  _atom_site_type_symbol
  _atom_site_label
  _atom_site_symmetry_multiplicity
  _atom_site_fract_x
  _atom_site_fract_y
  _atom_site_fract_z
  _atom_site_occupancy
  La  La1       1.0  0.0  0.25  0.0690645892038234  1.0000
  La  La2       1.0  0.12716  0.0  0.1381291784076468  1.0000
  Zr  Zr1       1.0  0.0  0.0  0.0  1.0000
  Li  Li1       1.0  0.0  0.25  0.2071937676114702  1.0000
  Li  Li2       1.0  0.1813  0.4313  0.0690645892038234  1.0000
  Li  Li3       1.0  0.0796  0.08629999999999997  0.44748328636941265  1.0000
  O   O1        1.0  0.9665  0.05459999999999999  0.08442455384275374  1.0000
  O   O2        1.0  0.05339999999999999  0.8525  0.29648046853417315  1.0000
  O   O3        1.0  0.1499  0.027299999999999994  0.24609094425106365  1.0000
  La  La3       1.0  0.0  0.25  0.6215813028344107  1.0000
  La  La4       1.0  0.12716  0.0  0.6906458920382341  1.0000
  Zr  Zr2       1.0  0.0  0.0  0.5525167136305872  1.0000
  Li  Li4       1.0  0.0  0.25  0.7597104812420576  1.0000
  Li  Li5       1.0  0.1813  0.4313  0.6215813028344107  1.0000
  Li  Li6       1.0  0.0796  0.08629999999999997  5.838672220806777e-17  1.0000
  O   O4        1.0  0.9665  0.05459999999999999  0.6369412674733411  1.0000
  O   O5        1.0  0.05339999999999999  0.8525  0.8489971821647603  1.0000
  O   O6        1.0  0.1499  0.027299999999999994  0.7986076578816509  1.0000
