# generated using pymatgen
data_Li40La18Zr10O67
_symmetry_space_group_name_H-M   'P 1'
_cell_length_a   11.29297700
_cell_length_b   11.29297737
_cell_length_c   57.24735081
_cell_angle_alpha   90.00000000
_cell_angle_beta   90.00000000
_cell_angle_gamma   111.54263211
_symmetry_Int_Tables_number   1
_chemical_formula_structural   Li40La18Zr10O67
_chemical_formula_sum   'Li80 La36 Zr20 O134'
_cell_volume   6790.82858505
_cell_formula_units_Z   2
loop_
 _symmetry_equiv_pos_site_id
 _symmetry_equiv_pos_as_xyz
  1  'x, y, z'
loop_
 _atom_site_type_symbol
 _atom_site_label
 _atom_site_symmetry_multiplicity
 _atom_site_fract_x
 _atom_site_fract_y
 _atom_site_fract_z
 _atom_site_occupancy
  Li  Li0  1  0.28998467  0.50627494  0.50752678  1
  Li  Li1  1  0.73706520  0.98703935  0.51137527  1
  Li  Li2  1  0.85420395  0.48079482  0.51079854  1
  Li  Li3  1  0.94602153  0.93627137  0.52085382  1
  Li  Li4  1  0.07838250  0.55144370  0.52196092  1
  Li  Li5  1  0.00294706  0.73979300  0.53352993  1
  Li  Li6  1  0.37181713  0.53000404  0.54868079  1
  Li  Li7  1  0.14165112  0.97544642  0.54890921  1
  Li  Li8  1  0.62880311  0.97163274  0.55092056  1
  Li  Li9  1  0.85683491  0.52377525  0.55263574  1
  Li  Li10  1  0.50004800  0.74370485  0.57024836  1
  Li  Li11  1  0.56388106  0.54461778  0.57485055  1
  Li  Li12  1  0.44009367  0.94698101  0.57778965  1
  Li  Li13  1  0.32889884  0.43934418  0.58821751  1
  Li  Li14  1  0.24775466  0.00096348  0.58908426  1
  Li  Li15  1  0.74921143  0.49854602  0.59073789  1
  Li  Li16  1  0.69772267  0.08740140  0.59095210  1
  Li  Li17  1  0.19193652  0.19747496  0.60183233  1
  Li  Li18  1  0.79806455  0.31352160  0.60388567  1
  Li  Li19  1  0.97831391  0.23516374  0.61378825  1
  Li  Li20  1  0.77509881  0.60767170  0.62914241  1
  Li  Li21  1  0.21913209  0.38561250  0.63093479  1
  Li  Li22  1  0.22038611  0.88739256  0.63037203  1
  Li  Li23  1  0.77325438  0.10594425  0.63348109  1
  Li  Li24  1  0.98495376  0.73757492  0.64956140  1
  Li  Li25  1  0.80270206  0.81462899  0.65837526  1
  Li  Li26  1  0.19520341  0.69578327  0.65873337  1
  Li  Li27  1  0.69413753  0.58280750  0.67122698  1
  Li  Li28  1  0.74913257  0.99860988  0.67201774  1
  Li  Li29  1  0.24905602  0.49867603  0.67174016  1
  Li  Li30  1  0.33306337  0.94358226  0.67211910  1
  Li  Li31  1  0.44487629  0.44485389  0.68493554  1
  Li  Li32  1  0.56304949  0.05135597  0.68546670  1
  Li  Li33  1  0.48622725  0.23385974  0.69464625  1
  Li  Li34  1  0.85745923  0.02408050  0.01205432  1
  Li  Li35  1  0.63686575  0.46885370  0.01401021  1
  Li  Li36  1  0.13686682  0.46885273  0.01372063  1
  Li  Li37  1  0.35746025  0.02408500  0.01567912  1
  Li  Li38  1  0.98622765  0.23385942  0.03200101  1
  Li  Li39  1  0.06305260  0.05135756  0.04118246  1
  Li  Li40  1  0.94488354  0.44485482  0.04171263  1
  Li  Li41  1  0.83306182  0.94358280  0.05452960  1
  Li  Li42  1  0.74905453  0.49867671  0.05490756  1
  Li  Li43  1  0.24913252  0.99861022  0.05462998  1
  Li  Li44  1  0.19413721  0.58280935  0.05542100  1
  Li  Li45  1  0.69520235  0.69578291  0.06791427  1
  Li  Li46  1  0.30269986  0.81462770  0.06827154  1
  Li  Li47  1  0.48495335  0.73757962  0.07708470  1
  Li  Li48  1  0.27325261  0.10594672  0.09316572  1
  Li  Li49  1  0.72038524  0.88739546  0.09627623  1
  Li  Li50  1  0.71913273  0.38561064  0.09571318  1
  Li  Li51  1  0.27509932  0.60767066  0.09750653  1
  Li  Li52  1  0.47831075  0.23516338  0.11285859  1
  Li  Li53  1  0.29806421  0.31352294  0.12276163  1
  Li  Li54  1  0.69193390  0.19747455  0.12481548  1
  Li  Li55  1  0.19772043  0.08740500  0.13569521  1
  Li  Li56  1  0.24921199  0.49854567  0.13590973  1
  Li  Li57  1  0.74775379  0.00097015  0.13756258  1
  Li  Li58  1  0.82889788  0.43935135  0.13842913  1
  Li  Li59  1  0.94009865  0.94698817  0.14885812  1
  Li  Li60  1  0.06387627  0.54461832  0.15179680  1
  Li  Li61  1  0.00005727  0.74371387  0.15639738  1
  Li  Li62  1  0.35683140  0.52376905  0.17401006  1
  Li  Li63  1  0.12880812  0.97162962  0.17572661  1
  Li  Li64  1  0.64164856  0.97544958  0.17773801  1
  Li  Li65  1  0.87181401  0.53000718  0.17796554  1
  Li  Li66  1  0.50294658  0.73978897  0.19311521  1
  Li  Li67  1  0.57838567  0.55144545  0.20468364  1
  Li  Li68  1  0.44602181  0.93626965  0.20579182  1
  Li  Li69  1  0.35420807  0.48078774  0.21584734  1
  Li  Li70  1  0.23706510  0.98703824  0.21527181  1
  Li  Li71  1  0.78998360  0.50627334  0.21911962  1
  Li  Li72  1  0.65089306  0.02813786  0.22217859  1
  Li  Li73  1  0.17684208  0.15028501  0.22918195  1
  Li  Li74  1  0.85463261  0.19031088  0.24025731  1
  Li  Li75  1  0.27965935  0.36164107  0.25184435  1
  Li  Li76  1  0.77965215  0.36164147  0.47480147  1
  Li  Li77  1  0.35462635  0.19030895  0.48639010  1
  Li  Li78  1  0.67684264  0.15028571  0.49746475  1
  Li  Li79  1  0.15089100  0.02813077  0.50446803  1
  La  La80  1  0.83038692  0.69413465  0.49072081  1
  La  La81  1  0.18148059  0.80166792  0.49139839  1
  La  La82  1  0.50698244  0.75471487  0.51362322  1
  La  La83  1  0.97978147  0.24962905  0.51157463  1
  La  La84  1  0.56864529  0.43698910  0.51996805  1
  La  La85  1  0.42872614  0.05684259  0.52564442  1
  La  La86  1  0.93792493  0.06313703  0.56979844  1
  La  La87  1  0.05937535  0.43128710  0.57142193  1
  La  La88  1  0.00197302  0.74946488  0.59115651  1
  La  La89  1  0.49359836  0.24928103  0.58826834  1
  La  La90  1  0.68628461  0.81568403  0.61037095  1
  La  La91  1  0.31267078  0.68185130  0.61124145  1
  La  La92  1  0.31178983  0.18647826  0.65109897  1
  La  La93  1  0.68226056  0.31270050  0.65220830  1
  La  La94  1  0.99872128  0.24937653  0.67216843  1
  La  La95  1  0.49915290  0.74858774  0.67184623  1
  La  La96  1  0.06464235  0.93450691  0.69155399  1
  La  La97  1  0.93555760  0.56137886  0.69247082  1
  La  La98  1  0.43555801  0.56137989  0.03417709  1
  La  La99  1  0.56464456  0.93450772  0.03509336  1
  La  La100  1  0.49872152  0.24937873  0.05447843  1
  La  La101  1  0.99914905  0.74859010  0.05480075  1
  La  La102  1  0.18225872  0.31270316  0.07443882  1
  La  La103  1  0.81179177  0.18647729  0.07554932  1
  La  La104  1  0.81266997  0.68185330  0.11540537  1
  La  La105  1  0.18628844  0.81568704  0.11627516  1
  La  La106  1  0.50197481  0.74946879  0.13548991  1
  La  La107  1  0.99359547  0.24928435  0.13837955  1
  La  La108  1  0.55937401  0.43128977  0.15522479  1
  La  La109  1  0.43792667  0.06313887  0.15684842  1
  La  La110  1  0.92872462  0.05684003  0.20100336  1
  La  La111  1  0.06864627  0.43699020  0.20668035  1
  La  La112  1  0.00698402  0.75471209  0.21302359  1
  La  La113  1  0.47978574  0.24962434  0.21507025  1
  La  La114  1  0.68148459  0.80166809  0.23524726  1
  La  La115  1  0.33039653  0.69413498  0.23592455  1
  Zr  Zr116  1  0.75615185  0.74952532  0.55037659  1
  Zr  Zr117  1  0.25302346  0.25374447  0.54482845  1
  Zr  Zr118  1  0.73912237  0.24886578  0.54937312  1
  Zr  Zr119  1  0.24987960  0.74331974  0.55132138  1
  Zr  Zr120  1  0.00089854  0.00073149  0.63092796  1
  Zr  Zr121  1  0.49956673  0.49835456  0.63022906  1
  Zr  Zr122  1  0.49912427  0.99937858  0.63058941  1
  Zr  Zr123  1  0.99771740  0.49797212  0.63172385  1
  Zr  Zr124  1  0.24861649  0.24872940  0.01361152  1
  Zr  Zr125  1  0.74959124  0.74867669  0.01386619  1
  Zr  Zr126  1  0.24959132  0.74867751  0.01386612  1
  Zr  Zr127  1  0.74861915  0.24873006  0.01412139  1
  Zr  Zr128  1  0.49771859  0.49797369  0.09492347  1
  Zr  Zr129  1  0.99912533  0.99937911  0.09605899  1
  Zr  Zr130  1  0.99956865  0.49835828  0.09641843  1
  Zr  Zr131  1  0.50090021  0.00073458  0.09571941  1
  Zr  Zr132  1  0.74988424  0.74332614  0.17532393  1
  Zr  Zr133  1  0.23911776  0.24886253  0.17727372  1
  Zr  Zr134  1  0.75302736  0.25374947  0.18181814  1
  Zr  Zr135  1  0.25615229  0.74952130  0.17626937  1
  O  O136  1  0.75056522  0.82893322  0.51564372  1
  O  O137  1  0.26955816  0.66768158  0.51637337  1
  O  O138  1  0.36915341  0.25394612  0.51628123  1
  O  O139  1  0.62328538  0.24228033  0.52079040  1
  O  O140  1  0.20080806  0.87143303  0.53024779  1
  O  O141  1  0.80104238  0.61487317  0.52998699  1
  O  O142  1  0.08601707  0.10488553  0.52970751  1
  O  O143  1  0.18203698  0.39083476  0.52995541  1
  O  O144  1  0.81571056  0.11132556  0.53475102  1
  O  O145  1  0.91032637  0.39051831  0.53484337  1
  O  O146  1  0.55888194  0.64681735  0.54716399  1
  O  O147  1  0.44497321  0.85291172  0.54881673  1
  O  O148  1  0.95437695  0.86188611  0.55318456  1
  O  O149  1  0.05197658  0.63172165  0.55457468  1
  O  O150  1  0.41200373  0.38942133  0.56194417  1
  O  O151  1  0.30858522  0.11248383  0.56153439  1
  O  O152  1  0.68529299  0.38609816  0.56507721  1
  O  O153  1  0.58301915  0.10714503  0.56557064  1
  O  O154  1  0.28471788  0.59736792  0.57034505  1
  O  O155  1  0.71894840  0.89349979  0.56976629  1
  O  O156  1  0.13084262  0.25487864  0.57451614  1
  O  O157  1  0.86067909  0.23831897  0.57898182  1
  O  O158  1  0.76766218  0.66840132  0.58271542  1
  O  O159  1  0.23668773  0.82693781  0.58346530  1
  O  O160  1  0.08059464  0.98941457  0.59798059  1
  O  O161  1  0.91616240  0.50914724  0.59878025  1
  O  O162  1  0.49357725  0.61201818  0.60089307  1
  O  O163  1  0.50411303  0.87623548  0.60263373  1
  O  O164  1  0.13894074  0.46406314  0.61117495  1
  O  O165  1  0.85767712  0.03890916  0.61099866  1
  O  O166  1  0.35399894  0.33625687  0.61490405  1
  O  O167  1  0.63481524  0.43059615  0.61578805  1
  O  O168  1  0.36643937  0.06624453  0.61449258  1
  O  O169  1  0.64376958  0.16311001  0.61730038  1
  O  O170  1  0.89051765  0.80214472  0.62755308  1
  O  O171  1  0.10586911  0.69764812  0.62825495  1
  O  O172  1  0.10626207  0.19972480  0.63373267  1
  O  O173  1  0.88736400  0.30049914  0.63548671  1
  O  O174  1  0.64207524  0.66361025  0.64504639  1
  O  O175  1  0.36385356  0.56611193  0.64569013  1
  O  O176  1  0.63589781  0.93197945  0.64615423  1
  O  O177  1  0.35543770  0.83540467  0.64612270  1
  O  O178  1  0.85545096  0.53773908  0.65150110  1
  O  O179  1  0.14479084  0.96913524  0.65115390  1
  O  O180  1  0.50244349  0.37875024  0.65907862  1
  O  O181  1  0.48751100  0.11049229  0.66030225  1
  O  O182  1  0.91843855  0.01127004  0.66404837  1
  O  O183  1  0.07803429  0.48650288  0.66477069  1
  O  O184  1  0.23543145  0.32787042  0.67935849  1
  O  O185  1  0.75953169  0.16609495  0.68008024  1
  O  O186  1  0.86272098  0.73996098  0.68323786  1
  O  O187  1  0.12964423  0.75453063  0.68440368  1
  O  O188  1  0.71746273  0.39198367  0.69256451  1
  O  O189  1  0.28764570  0.10661095  0.69246360  1
  O  O190  1  0.58670331  0.60504714  0.69746019  1
  O  O191  1  0.68313134  0.88479074  0.69755859  1
  O  O192  1  0.31756010  0.61403979  0.69751977  1
  O  O193  1  0.41459607  0.89173051  0.69843264  1
  O  O194  1  0.05054610  0.13842230  0.01019471  1
  O  O195  1  0.94820077  0.35585344  0.01095509  1
  O  O196  1  0.44819903  0.35585530  0.01677792  1
  O  O197  1  0.55054740  0.13842528  0.01753802  1
  O  O198  1  0.91459388  0.89172751  0.02821580  1
  O  O199  1  0.81755841  0.61403875  0.02912734  1
  O  O200  1  0.18312608  0.88479051  0.02908866  1
  O  O201  1  0.08670458  0.60504743  0.02918701  1
  O  O202  1  0.78764558  0.10660974  0.03418487  1
  O  O203  1  0.21746031  0.39198481  0.03408297  1
  O  O204  1  0.62964487  0.75453220  0.04224358  1
  O  O205  1  0.36272194  0.73996248  0.04340918  1
  O  O206  1  0.25952544  0.16609425  0.04656807  1
  O  O207  1  0.73542863  0.32786973  0.04728943  1
  O  O208  1  0.57803832  0.48651077  0.06187701  1
  O  O209  1  0.41844041  0.01127451  0.06259811  1
  O  O210  1  0.98751220  0.11049194  0.06634589  1
  O  O211  1  0.00244166  0.37874920  0.06756969  1
  O  O212  1  0.64479245  0.96913464  0.07549347  1
  O  O213  1  0.35544964  0.53773835  0.07514668  1
  O  O214  1  0.85543560  0.83540283  0.08052559  1
  O  O215  1  0.13589509  0.93197789  0.08049290  1
  O  O216  1  0.86385464  0.56611342  0.08095685  1
  O  O217  1  0.14207701  0.66361218  0.08160083  1
  O  O218  1  0.38736392  0.30050107  0.09115964  1
  O  O219  1  0.60626390  0.19972819  0.09291411  1
  O  O220  1  0.60586836  0.69764898  0.09839324  1
  O  O221  1  0.39052069  0.80214833  0.09909328  1
  O  O222  1  0.14376989  0.16311251  0.10934687  1
  O  O223  1  0.86643980  0.06624748  0.11215453  1
  O  O224  1  0.13481754  0.43060361  0.11085939  1
  O  O225  1  0.85400141  0.33625830  0.11174393  1
  O  O226  1  0.35767969  0.03891014  0.11564780  1
  O  O227  1  0.63894219  0.46406426  0.11547222  1
  O  O228  1  0.00411626  0.87623791  0.12401437  1
  O  O229  1  0.99357891  0.61202251  0.12575427  1
  O  O230  1  0.41616427  0.50914596  0.12786761  1
  O  O231  1  0.58059680  0.98941698  0.12866610  1
  O  O232  1  0.73669309  0.82694612  0.14318082  1
  O  O233  1  0.26766426  0.66840125  0.14393043  1
  O  O234  1  0.36067759  0.23831595  0.14766473  1
  O  O235  1  0.63083934  0.25487715  0.15213113  1
  O  O236  1  0.21894795  0.89349354  0.15688021  1
  O  O237  1  0.78471897  0.59737265  0.15630108  1
  O  O238  1  0.08302205  0.10714302  0.16107682  1
  O  O239  1  0.18529115  0.38609572  0.16156988  1
  O  O240  1  0.80858551  0.11249061  0.16511149  1
  O  O241  1  0.91200273  0.38942521  0.16470333  1
  O  O242  1  0.55198024  0.63172627  0.17207145  1
  O  O243  1  0.45437917  0.86188135  0.17346111  1
  O  O244  1  0.94497780  0.85291478  0.17783070  1
  O  O245  1  0.05888311  0.64681637  0.17948332  1
  O  O246  1  0.41032668  0.39051782  0.19180213  1
  O  O247  1  0.31570606  0.11132099  0.19189545  1
  O  O248  1  0.68203732  0.39084042  0.19668964  1
  O  O249  1  0.58601268  0.10488340  0.19693806  1
  O  O250  1  0.30104496  0.61486899  0.19665928  1
  O  O251  1  0.70081680  0.87144215  0.19639839  1
  O  O252  1  0.12328396  0.24227919  0.20585663  1
  O  O253  1  0.86915107  0.25394190  0.21036578  1
  O  O254  1  0.76956431  0.66768443  0.21027142  1
  O  O255  1  0.25056653  0.82893261  0.21100180  1
  O  O256  1  0.06921346  0.97422460  0.22080578  1
  O  O257  1  0.96474841  0.55104101  0.22570060  1
  O  O258  1  0.49959174  0.62184623  0.22870324  1
  O  O259  1  0.51457079  0.87524091  0.23238188  1
  O  O260  1  0.21840886  0.47773654  0.23873208  1
  O  O261  1  0.80386095  0.01944350  0.23683827  1
  O  O262  1  0.34168907  0.24010167  0.24209809  1
  O  O263  1  0.84168913  0.24010501  0.48454623  1
  O  O264  1  0.30386150  0.01944254  0.48980940  1
  O  O265  1  0.71840364  0.47773639  0.48791497  1
  O  O266  1  0.01456447  0.87523854  0.49426362  1
  O  O267  1  0.99958532  0.62184772  0.49794212  1
  O  O268  1  0.46475269  0.55104713  0.50094732  1
  O  O269  1  0.56921415  0.97422702  0.50584260  1
