# generated using pymatgen
data_Li40La18Zr10O67
_symmetry_space_group_name_H-M   'P 1'
_cell_length_a   11.29297700
_cell_length_b   11.29297737
_cell_length_c   57.72107329
_cell_angle_alpha   90.00000000
_cell_angle_beta   90.00000000
_cell_angle_gamma   111.54263211
_symmetry_Int_Tables_number   1
_chemical_formula_structural   Li40La18Zr10O67
_chemical_formula_sum   'Li80 La36 Zr20 O134'
_cell_volume   6847.02276999
_cell_formula_units_Z   2
loop_
 _symmetry_equiv_pos_site_id
 _symmetry_equiv_pos_as_xyz
  1  'x, y, z'
loop_
 _atom_site_type_symbol
 _atom_site_label
 _atom_site_symmetry_multiplicity
 _atom_site_fract_x
 _atom_site_fract_y
 _atom_site_fract_z
 _atom_site_occupancy
  Li  Li0  1  0.26131009  0.14197015  0.63095861  1
  Li  Li1  1  0.32348427  0.34231812  0.65835605  1
  Li  Li2  1  0.65408556  0.13991566  0.65109510  1
  Li  Li3  1  0.15751994  0.06351520  0.66426051  1
  Li  Li4  1  0.27779679  0.52007737  0.67082761  1
  Li  Li5  1  0.74641232  0.01572408  0.66725842  1
  Li  Li6  1  0.80593924  0.34038246  0.66159351  1
  Li  Li7  1  0.94108906  0.95197623  0.68369430  1
  Li  Li8  1  0.02187901  0.55282067  0.67827105  1
  Li  Li9  1  0.02056423  0.77582058  0.00051564  1
  Li  Li10  1  0.37168824  0.53092083  0.01782381  1
  Li  Li11  1  0.14898372  0.98212292  0.01777703  1
  Li  Li12  1  0.63936808  0.97619517  0.01364089  1
  Li  Li13  1  0.85364723  0.52220805  0.01301857  1
  Li  Li14  1  0.51635086  0.76831537  0.03637238  1
  Li  Li15  1  0.56286600  0.55584410  0.04436796  1
  Li  Li16  1  0.43496733  0.95081536  0.04126297  1
  Li  Li17  1  0.30100194  0.41623508  0.05667960  1
  Li  Li18  1  0.25165763  0.99859858  0.05686866  1
  Li  Li19  1  0.75483262  0.49847866  0.05482710  1
  Li  Li20  1  0.66198150  0.05682941  0.05491835  1
  Li  Li21  1  0.20015415  0.18537235  0.06903964  1
  Li  Li22  1  0.80460719  0.30548181  0.06899893  1
  Li  Li23  1  0.02027781  0.26706589  0.07891423  1
  Li  Li24  1  0.77608431  0.60629541  0.09433061  1
  Li  Li25  1  0.22703411  0.39516612  0.09892432  1
  Li  Li26  1  0.22091704  0.88803163  0.09701539  1
  Li  Li27  1  0.78160939  0.11625072  0.09630919  1
  Li  Li28  1  0.98636779  0.73698194  0.11500514  1
  Li  Li29  1  0.80579604  0.81263580  0.12435773  1
  Li  Li30  1  0.19896131  0.69432104  0.12396233  1
  Li  Li31  1  0.69111704  0.57657747  0.13670700  1
  Li  Li32  1  0.75201356  0.00134486  0.13665698  1
  Li  Li33  1  0.25188626  0.50099740  0.13779019  1
  Li  Li34  1  0.33255233  0.94087951  0.13778927  1
  Li  Li35  1  0.44708588  0.44616609  0.15045421  1
  Li  Li36  1  0.56569067  0.05249108  0.15083749  1
  Li  Li37  1  0.49067366  0.23479850  0.16015142  1
  Li  Li38  1  0.86096532  0.02456165  0.17557838  1
  Li  Li39  1  0.64087023  0.46964147  0.17783859  1
  Li  Li40  1  0.14087438  0.46964281  0.17797790  1
  Li  Li41  1  0.36096758  0.02456281  0.18023939  1
  Li  Li42  1  0.99067496  0.23480646  0.19566592  1
  Li  Li43  1  0.06568789  0.05249547  0.20498012  1
  Li  Li44  1  0.94708321  0.44616655  0.20536268  1
  Li  Li45  1  0.83255559  0.94088401  0.21802884  1
  Li  Li46  1  0.75188505  0.50099768  0.21802679  1
  Li  Li47  1  0.25201560  0.00134794  0.21916015  1
  Li  Li48  1  0.19110791  0.57657214  0.21911070  1
  Li  Li49  1  0.69895998  0.69431768  0.23185600  1
  Li  Li50  1  0.30579408  0.81263562  0.23145935  1
  Li  Li51  1  0.48636489  0.73698095  0.24081191  1
  Li  Li52  1  0.28160917  0.11625209  0.25950862  1
  Li  Li53  1  0.72091552  0.88803245  0.25880124  1
  Li  Li54  1  0.72703325  0.39517077  0.25689246  1
  Li  Li55  1  0.27608284  0.60629574  0.26148622  1
  Li  Li56  1  0.52027480  0.26707062  0.27690275  1
  Li  Li57  1  0.30460026  0.30547935  0.28681771  1
  Li  Li58  1  0.70015588  0.18537545  0.28677781  1
  Li  Li59  1  0.16198222  0.05682878  0.30089980  1
  Li  Li60  1  0.25483134  0.49848288  0.30099027  1
  Li  Li61  1  0.75166148  0.99860278  0.29894814  1
  Li  Li62  1  0.80099436  0.41623611  0.29913754  1
  Li  Li63  1  0.93496738  0.95081696  0.31455461  1
  Li  Li64  1  0.06287076  0.55585244  0.31144899  1
  Li  Li65  1  0.01635363  0.76832351  0.31944563  1
  Li  Li66  1  0.35364740  0.52220960  0.34279764  1
  Li  Li67  1  0.13936963  0.97620068  0.34217721  1
  Li  Li68  1  0.64898857  0.98213129  0.33803890  1
  Li  Li69  1  0.87169179  0.53092700  0.33799389  1
  Li  Li70  1  0.52056124  0.77582359  0.35530057  1
  Li  Li71  1  0.52186898  0.55282656  0.37072488  1
  Li  Li72  1  0.44109286  0.95198447  0.36530177  1
  Li  Li73  1  0.30594530  0.34038703  0.38740326  1
  Li  Li74  1  0.24641710  0.01572741  0.38173839  1
  Li  Li75  1  0.77780193  0.52008430  0.37816958  1
  Li  Li76  1  0.65752674  0.06352095  0.38473619  1
  Li  Li77  1  0.15409473  0.13992107  0.39790116  1
  Li  Li78  1  0.82349064  0.34232433  0.39063961  1
  Li  Li79  1  0.76131436  0.14197731  0.41803843  1
  La  La80  1  0.83818411  0.71508892  0.65204897  1
  La  La81  1  0.18203508  0.81243050  0.65125313  1
  La  La82  1  0.50772580  0.75584655  0.67328911  1
  La  La83  1  0.01131976  0.24101666  0.66723310  1
  La  La84  1  0.56282830  0.43564221  0.68877612  1
  La  La85  1  0.42948349  0.06546330  0.68322875  1
  La  La86  1  0.93575412  0.07063531  0.03702532  1
  La  La87  1  0.05981925  0.43745322  0.03474542  1
  La  La88  1  0.00066304  0.75202359  0.05710409  1
  La  La89  1  0.50194300  0.25074716  0.05514565  1
  La  La90  1  0.68870670  0.81848305  0.07739183  1
  La  La91  1  0.31432616  0.68536219  0.07602672  1
  La  La92  1  0.31659457  0.18844049  0.11724606  1
  La  La93  1  0.68835533  0.31448097  0.11765256  1
  La  La94  1  0.00280620  0.25011884  0.13738399  1
  La  La95  1  0.50188894  0.74940931  0.13737067  1
  La  La96  1  0.06858163  0.93543583  0.15698382  1
  La  La97  1  0.94023226  0.56271561  0.15741213  1
  La  La98  1  0.44023229  0.56271499  0.19840609  1
  La  La99  1  0.56858521  0.93543870  0.19883365  1
  La  La100  1  0.50280708  0.25012129  0.21843250  1
  La  La101  1  0.00188987  0.74941311  0.21844709  1
  La  La102  1  0.18835394  0.31447968  0.23816431  1
  La  La103  1  0.81659229  0.18844303  0.23857170  1
  La  La104  1  0.81432730  0.68536479  0.27979059  1
  La  La105  1  0.18870512  0.81848436  0.27842571  1
  La  La106  1  0.50066569  0.75203084  0.29871320  1
  La  La107  1  0.00194491  0.25075353  0.30067194  1
  La  La108  1  0.55982025  0.43745901  0.32107191  1
  La  La109  1  0.43575672  0.07064317  0.31879184  1
  La  La110  1  0.92948933  0.06546775  0.36576903  1
  La  La111  1  0.06283017  0.43564760  0.36022095  1
  La  La112  1  0.00773093  0.75585439  0.37570819  1
  La  La113  1  0.51132466  0.24102264  0.38176284  1
  La  La114  1  0.68203624  0.81243396  0.39774313  1
  La  La115  1  0.33818866  0.71509836  0.39694758  1
  Zr  Zr116  1  0.75351087  0.75464716  0.01734728  1
  Zr  Zr117  1  0.25261662  0.25213234  0.01542276  1
  Zr  Zr118  1  0.74933724  0.24539109  0.01337180  1
  Zr  Zr119  1  0.24871282  0.74510674  0.01615754  1
  Zr  Zr120  1  0.00325719  0.00220060  0.09711786  1
  Zr  Zr121  1  0.50160111  0.50120256  0.09634832  1
  Zr  Zr122  1  0.50041378  0.00168562  0.09645186  1
  Zr  Zr123  1  0.00145897  0.50005533  0.09659487  1
  Zr  Zr124  1  0.25323538  0.25038731  0.17788625  1
  Zr  Zr125  1  0.75337257  0.74937908  0.17772262  1
  Zr  Zr126  1  0.25337308  0.74937845  0.17809572  1
  Zr  Zr127  1  0.75323796  0.25038639  0.17793037  1
  Zr  Zr128  1  0.50145412  0.50005809  0.25922323  1
  Zr  Zr129  1  0.00041255  0.00169103  0.25936586  1
  Zr  Zr130  1  0.00159891  0.50120297  0.25946904  1
  Zr  Zr131  1  0.50325762  0.00220465  0.25869943  1
  Zr  Zr132  1  0.74871392  0.74511130  0.33966031  1
  Zr  Zr133  1  0.24933802  0.24539576  0.34244506  1
  Zr  Zr134  1  0.75262035  0.25213593  0.34039484  1
  Zr  Zr135  1  0.25351165  0.75465665  0.33846972  1
  O  O136  1  0.44937905  0.52813741  0.66394269  1
  O  O137  1  0.56109043  0.97318611  0.66419475  1
  O  O138  1  0.74613514  0.83906661  0.67619668  1
  O  O139  1  0.27143561  0.68188257  0.67405625  1
  O  O140  1  0.37736296  0.25340725  0.68156136  1
  O  O141  1  0.63973642  0.26107592  0.67645384  1
  O  O142  1  0.20756315  0.88456580  0.69018552  1
  O  O143  1  0.78201399  0.61505300  0.68720607  1
  O  O144  1  0.08964119  0.10747150  0.00131823  1
  O  O145  1  0.19464213  0.39324845  0.69303782  1
  O  O146  1  0.81783015  0.10199319  0.00318072  1
  O  O147  1  0.91060349  0.38906542  0.69039475  1
  O  O148  1  0.55631023  0.64888988  0.01470290  1
  O  O149  1  0.44528626  0.85142595  0.01368180  1
  O  O150  1  0.95041772  0.86411100  0.02075198  1
  O  O151  1  0.04715831  0.63718820  0.01710516  1
  O  O152  1  0.41927390  0.39519339  0.03112995  1
  O  O153  1  0.31324499  0.11531709  0.03151823  1
  O  O154  1  0.68849738  0.38686644  0.02880414  1
  O  O155  1  0.58294835  0.10927948  0.02849070  1
  O  O156  1  0.27696684  0.60083876  0.03616692  1
  O  O157  1  0.71056766  0.89300034  0.03641050  1
  O  O158  1  0.13754587  0.26368286  0.04467607  1
  O  O159  1  0.86894421  0.25102567  0.04276032  1
  O  O160  1  0.76558555  0.66984535  0.04874815  1
  O  O161  1  0.23554864  0.82792157  0.04824053  1
  O  O162  1  0.08557098  0.98934382  0.06495515  1
  O  O163  1  0.92292312  0.51596284  0.06397611  1
  O  O164  1  0.49639080  0.62517539  0.06851509  1
  O  O165  1  0.50802552  0.89019005  0.06712352  1
  O  O166  1  0.14324716  0.46272931  0.07684090  1
  O  O167  1  0.86015502  0.03506924  0.07683501  1
  O  O168  1  0.35720908  0.33753085  0.08240311  1
  O  O169  1  0.63625390  0.43724663  0.08029338  1
  O  O170  1  0.36594172  0.07020807  0.08196663  1
  O  O171  1  0.64434893  0.16451380  0.08142916  1
  O  O172  1  0.89284708  0.80249559  0.09343117  1
  O  O173  1  0.10957757  0.69976070  0.09379901  1
  O  O174  1  0.11163462  0.20061201  0.10064312  1
  O  O175  1  0.89300623  0.30193058  0.09967427  1
  O  O176  1  0.64533006  0.66587913  0.11129807  1
  O  O177  1  0.36504424  0.56716066  0.11181294  1
  O  O178  1  0.63671572  0.93316631  0.11136473  1
  O  O179  1  0.35867001  0.83743022  0.11138943  1
  O  O180  1  0.85829031  0.53710269  0.11651631  1
  O  O181  1  0.14746526  0.97044688  0.11743656  1
  O  O182  1  0.51227552  0.38529751  0.12486632  1
  O  O183  1  0.49468611  0.11533552  0.12590226  1
  O  O184  1  0.92133439  0.01130626  0.13001200  1
  O  O185  1  0.08151494  0.48673420  0.12960237  1
  O  O186  1  0.24136435  0.33116462  0.14511519  1
  O  O187  1  0.76456479  0.16983514  0.14496528  1
  O  O188  1  0.86860921  0.74026770  0.14866174  1
  O  O189  1  0.13631504  0.75635905  0.14964712  1
  O  O190  1  0.72247478  0.39414341  0.15751791  1
  O  O191  1  0.29281665  0.10846180  0.15822827  1
  O  O192  1  0.58962479  0.60605601  0.16294300  1
  O  O193  1  0.68717106  0.88559761  0.16236880  1
  O  O194  1  0.32110472  0.61477763  0.16306523  1
  O  O195  1  0.41799467  0.89284615  0.16363611  1
  O  O196  1  0.05559734  0.13993700  0.17425349  1
  O  O197  1  0.95296075  0.35726486  0.17482850  1
  O  O198  1  0.45295995  0.35726784  0.18098901  1
  O  O199  1  0.55559731  0.13993399  0.18156386  1
  O  O200  1  0.91799721  0.89285095  0.19218202  1
  O  O201  1  0.82111069  0.61477703  0.19275129  1
  O  O202  1  0.18717041  0.88559562  0.19344936  1
  O  O203  1  0.08962676  0.60605100  0.19287427  1
  O  O204  1  0.79281699  0.10846242  0.19758902  1
  O  O205  1  0.22247468  0.39414549  0.19829914  1
  O  O206  1  0.63631886  0.75635784  0.20617080  1
  O  O207  1  0.36861118  0.74026794  0.20715605  1
  O  O208  1  0.26456595  0.16983937  0.21085197  1
  O  O209  1  0.74136412  0.33116800  0.21070149  1
  O  O210  1  0.58151155  0.48673910  0.22621533  1
  O  O211  1  0.42133932  0.01131480  0.22580526  1
  O  O212  1  0.99468911  0.11534251  0.22991572  1
  O  O213  1  0.01227016  0.38529766  0.23095066  1
  O  O214  1  0.64746902  0.97045263  0.23838093  1
  O  O215  1  0.35829217  0.53710686  0.23930069  1
  O  O216  1  0.85867217  0.83743165  0.24442812  1
  O  O217  1  0.13671720  0.93317201  0.24445320  1
  O  O218  1  0.86504325  0.56716234  0.24400437  1
  O  O219  1  0.14533011  0.66588088  0.24451962  1
  O  O220  1  0.39299819  0.30193466  0.25614392  1
  O  O221  1  0.61163516  0.20061483  0.25517432  1
  O  O222  1  0.60957782  0.69976337  0.26201822  1
  O  O223  1  0.39284898  0.80249827  0.26238577  1
  O  O224  1  0.14434556  0.16451616  0.27438866  1
  O  O225  1  0.86593982  0.07021311  0.27385051  1
  O  O226  1  0.13625420  0.43725115  0.27552404  1
  O  O227  1  0.85720631  0.33753179  0.27341436  1
  O  O228  1  0.36015433  0.03507111  0.27898230  1
  O  O229  1  0.64324643  0.46273443  0.27897638  1
  O  O230  1  0.00802355  0.89019203  0.28869342  1
  O  O231  1  0.99639345  0.62517870  0.28730198  1
  O  O232  1  0.42292391  0.51597056  0.29184206  1
  O  O233  1  0.58557346  0.98934748  0.29086248  1
  O  O234  1  0.73554734  0.82792454  0.30757755  1
  O  O235  1  0.26558311  0.66985023  0.30706940  1
  O  O236  1  0.36894252  0.25102812  0.31305499  1
  O  O237  1  0.63754623  0.26368923  0.31114188  1
  O  O238  1  0.21056679  0.89300706  0.31940701  1
  O  O239  1  0.77696448  0.60084182  0.31965069  1
  O  O240  1  0.08294870  0.10928584  0.32732678  1
  O  O241  1  0.18849968  0.38687054  0.32701307  1
  O  O242  1  0.81325019  0.11532239  0.32429936  1
  O  O243  1  0.91927573  0.39519637  0.32468729  1
  O  O244  1  0.54715868  0.63719031  0.33871313  1
  O  O245  1  0.45041744  0.86412286  0.33506518  1
  O  O246  1  0.94528898  0.85143380  0.34213586  1
  O  O247  1  0.05631021  0.64889656  0.34111467  1
  O  O248  1  0.41060445  0.38906626  0.35860131  1
  O  O249  1  0.31783513  0.10200001  0.35263610  1
  O  O250  1  0.69464855  0.39325579  0.35595909  1
  O  O251  1  0.58964599  0.10747687  0.35449857  1
  O  O252  1  0.28202166  0.61505897  0.36178986  1
  O  O253  1  0.70756487  0.88457022  0.35881066  1
  O  O254  1  0.13974337  0.26108096  0.37254369  1
  O  O255  1  0.87736754  0.25341111  0.36743552  1
  O  O256  1  0.77144570  0.68189166  0.37494161  1
  O  O257  1  0.24613767  0.83907480  0.37279981  1
  O  O258  1  0.06109968  0.97319470  0.38480104  1
  O  O259  1  0.94938442  0.52814451  0.38505412  1
  O  O260  1  0.48790230  0.63278858  0.39785844  1
  O  O261  1  0.50965683  0.88324851  0.39017020  1
  O  O262  1  0.80006212  0.02123014  0.40148193  1
  O  O263  1  0.33004973  0.19410924  0.40045671  1
  O  O264  1  0.67080075  0.22489065  0.40356222  1
  O  O265  1  0.17079838  0.22489024  0.64543394  1
  O  O266  1  0.83004078  0.19410447  0.64854050  1
  O  O267  1  0.30005423  0.02122800  0.64751483  1
  O  O268  1  0.00965612  0.88324046  0.65882666  1
  O  O269  1  0.98789912  0.63277974  0.65113839  1
