# generated using pymatgen
data_Li18La8Zr5O31
_symmetry_space_group_name_H-M   'P 1'
_cell_length_a   12.70453900
_cell_length_b   13.20454200
_cell_length_c   47.34926352
_cell_angle_alpha   90.00000000
_cell_angle_beta   90.00000000
_cell_angle_gamma   90.00000000
_symmetry_Int_Tables_number   1
_chemical_formula_structural   Li18La8Zr5O31
_chemical_formula_sum   'Li72 La32 Zr20 O124'
_cell_volume   7943.19970087
_cell_formula_units_Z   4
loop_
 _symmetry_equiv_pos_site_id
 _symmetry_equiv_pos_as_xyz
  1  'x, y, z'
loop_
 _atom_site_type_symbol
 _atom_site_label
 _atom_site_symmetry_multiplicity
 _atom_site_fract_x
 _atom_site_fract_y
 _atom_site_fract_z
 _atom_site_occupancy
  Li  Li0  1  0.69222090  0.94028651  0.60238755  1
  Li  Li1  1  0.79182309  0.13527389  0.60519996  1
  Li  Li2  1  0.19769437  0.57800866  0.60471668  1
  Li  Li3  1  0.31020344  0.41838778  0.60545633  1
  Li  Li4  1  0.86993866  0.26285379  0.63558225  1
  Li  Li5  1  0.62756343  0.77096146  0.62834485  1
  Li  Li6  1  0.41544674  0.21412854  0.60818960  1
  Li  Li7  1  0.12650154  0.76288246  0.60438291  1
  Li  Li8  1  0.31983543  0.12628625  0.65024930  1
  Li  Li9  1  0.17082108  0.86777524  0.64876786  1
  Li  Li10  1  0.76709026  0.47840131  0.66471366  1
  Li  Li11  1  0.67693649  0.61808700  0.64819271  1
  Li  Li12  1  0.41723515  0.31488649  0.65437638  1
  Li  Li13  1  0.08640248  0.66513990  0.65474959  1
  Li  Li14  1  0.95004528  0.15074626  0.00765444  1
  Li  Li15  1  0.54542573  0.84736207  0.00559868  1
  Li  Li16  1  0.34092321  0.94312878  0.00443532  1
  Li  Li17  1  0.14965068  0.05449913  0.00214125  1
  Li  Li18  1  0.57647524  0.42171765  0.00878076  1
  Li  Li19  1  0.92665044  0.58513304  0.00676211  1
  Li  Li20  1  0.39497893  0.41814674  0.04262946  1
  Li  Li21  1  0.10922784  0.58002199  0.04211355  1
  Li  Li22  1  0.64544455  0.93599559  0.04941771  1
  Li  Li23  1  0.84527270  0.06173917  0.05068098  1
  Li  Li24  1  0.05702144  0.16129148  0.05161340  1
  Li  Li25  1  0.44216016  0.83634369  0.05120291  1
  Li  Li26  1  0.56269655  0.32664338  0.05375103  1
  Li  Li27  1  0.94310797  0.67503381  0.05266254  1
  Li  Li28  1  0.19906884  0.41747319  0.07141147  1
  Li  Li29  1  0.30201647  0.58190649  0.07034931  1
  Li  Li30  1  0.68690881  0.09044305  0.07885486  1
  Li  Li31  1  0.80898833  0.90791790  0.07798749  1
  Li  Li32  1  0.37340710  0.74999783  0.09701316  1
  Li  Li33  1  0.12671705  0.24999925  0.09701216  1
  Li  Li34  1  0.87494800  0.74996972  0.09700832  1
  Li  Li35  1  0.62724553  0.24997086  0.09700324  1
  Li  Li36  1  0.80900952  0.59200820  0.11605316  1
  Li  Li37  1  0.68692382  0.40948457  0.11511709  1
  Li  Li38  1  0.30199459  0.91812442  0.12365554  1
  Li  Li39  1  0.19899172  0.08258499  0.12260680  1
  Li  Li40  1  0.94312250  0.82495107  0.14134894  1
  Li  Li41  1  0.56265964  0.17335992  0.14029960  1
  Li  Li42  1  0.44232218  0.66359598  0.14284868  1
  Li  Li43  1  0.05705656  0.33865978  0.14239295  1
  Li  Li44  1  0.84526133  0.43820734  0.14332114  1
  Li  Li45  1  0.64541030  0.56397406  0.14456913  1
  Li  Li46  1  0.10919736  0.91996061  0.15192284  1
  Li  Li47  1  0.39485405  0.08185499  0.15136481  1
  Li  Li48  1  0.92656012  0.91486202  0.18727573  1
  Li  Li49  1  0.57643255  0.07825905  0.18522584  1
  Li  Li50  1  0.14956926  0.44549529  0.19189107  1
  Li  Li51  1  0.34106358  0.55688931  0.18956171  1
  Li  Li52  1  0.54577797  0.65280844  0.18848299  1
  Li  Li53  1  0.95007764  0.34927078  0.18636179  1
  Li  Li54  1  0.08636423  0.83485384  0.21101460  1
  Li  Li55  1  0.41723804  0.18505592  0.21135077  1
  Li  Li56  1  0.67689942  0.88189834  0.21752137  1
  Li  Li57  1  0.76706315  0.02170941  0.20105649  1
  Li  Li58  1  0.17101190  0.63218882  0.21700836  1
  Li  Li59  1  0.31983168  0.37385404  0.21554576  1
  Li  Li60  1  0.86990851  0.23727320  0.23020297  1
  Li  Li61  1  0.62749733  0.72920182  0.23743623  1
  Li  Li62  1  0.41540737  0.28586292  0.25754360  1
  Li  Li63  1  0.12658359  0.73708764  0.26140653  1
  Li  Li64  1  0.31015900  0.08163655  0.26029607  1
  Li  Li65  1  0.19765338  0.92196340  0.26104793  1
  Li  Li66  1  0.79158039  0.36427258  0.26070213  1
  Li  Li67  1  0.69233636  0.55993006  0.26333973  1
  Li  Li68  1  0.90323817  0.20448475  0.27705537  1
  Li  Li69  1  0.61525702  0.83121380  0.28023835  1
  Li  Li70  1  0.61529732  0.66878567  0.58557676  1
  Li  Li71  1  0.90326360  0.29536499  0.58872496  1
  La  La72  1  0.25261043  0.97474648  0.59661069  1
  La  La73  1  0.75493036  0.48172416  0.60007426  1
  La  La74  1  0.87336624  0.74877046  0.62850539  1
  La  La75  1  0.37737025  0.75619010  0.62883370  1
  La  La76  1  0.62808050  0.25653679  0.63431355  1
  La  La77  1  0.11753580  0.25098898  0.63191738  1
  La  La78  1  0.74525219  0.99850136  0.66340512  1
  La  La79  1  0.25318494  0.49290024  0.66391276  1
  La  La80  1  0.50156567  0.12056617  0.02720706  1
  La  La81  1  0.00284956  0.37479180  0.02598369  1
  La  La82  1  0.49684235  0.62727661  0.02491719  1
  La  La83  1  0.99862268  0.88031259  0.03191739  1
  La  La84  1  0.75123542  0.50157600  0.05869653  1
  La  La85  1  0.25104298  0.99995532  0.06306968  1
  La  La86  1  0.37754344  0.24999861  0.09701201  1
  La  La87  1  0.87826955  0.24998873  0.09700439  1
  La  La88  1  0.12828379  0.74999188  0.09701110  1
  La  La89  1  0.62221503  0.75000823  0.09700238  1
  La  La90  1  0.25105769  0.50003839  0.13095814  1
  La  La91  1  0.75123102  0.99847921  0.13531231  1
  La  La92  1  0.99865774  0.61967291  0.16211767  1
  La  La93  1  0.49683412  0.87274298  0.16908293  1
  La  La94  1  0.00284430  0.12518629  0.16804361  1
  La  La95  1  0.50159339  0.37946520  0.16682204  1
  La  La96  1  0.25316000  0.00700875  0.20185243  1
  La  La97  1  0.74530025  0.50151604  0.20236095  1
  La  La98  1  0.87325199  0.75125685  0.23727079  1
  La  La99  1  0.37743379  0.74377971  0.23692363  1
  La  La100  1  0.62804794  0.24343134  0.23143768  1
  La  La101  1  0.11757191  0.24897247  0.23385276  1
  La  La102  1  0.75480825  0.01823603  0.26569108  1
  La  La103  1  0.25256947  0.52528520  0.26914980  1
  Zr  Zr104  1  0.98420298  0.01246016  0.62553500  1
  Zr  Zr105  1  0.50050340  0.01358966  0.62517472  1
  Zr  Zr106  1  0.49639922  0.50516252  0.62399327  1
  Zr  Zr107  1  0.00642412  0.49167216  0.62487294  1
  Zr  Zr108  1  0.75410731  0.24557506  0.02905724  1
  Zr  Zr109  1  0.75086709  0.75264196  0.02657030  1
  Zr  Zr110  1  0.25162138  0.24142434  0.02768517  1
  Zr  Zr111  1  0.24660099  0.75652302  0.02644826  1
  Zr  Zr112  1  0.49795946  0.50185908  0.09472882  1
  Zr  Zr113  1  0.00262635  0.49972706  0.09415865  1
  Zr  Zr114  1  0.00263082  0.00025340  0.09987241  1
  Zr  Zr115  1  0.49796893  0.99815655  0.09927673  1
  Zr  Zr116  1  0.24665173  0.74347710  0.16756770  1
  Zr  Zr117  1  0.25164968  0.25857688  0.16634787  1
  Zr  Zr118  1  0.75086529  0.74739039  0.16742710  1
  Zr  Zr119  1  0.75411675  0.25444527  0.16495027  1
  Zr  Zr120  1  0.00633715  0.00829920  0.24090565  1
  Zr  Zr121  1  0.49632370  0.99483281  0.24175572  1
  Zr  Zr122  1  0.50056865  0.48642049  0.24060318  1
  Zr  Zr123  1  0.98418860  0.48755343  0.24027735  1
  O  O124  1  0.83864416  0.94679987  0.61795929  1
  O  O125  1  0.65149186  0.07500984  0.61692787  1
  O  O126  1  0.16205631  0.43236321  0.61694660  1
  O  O127  1  0.34263671  0.56064406  0.61763704  1
  O  O128  1  0.34733945  0.93995238  0.63649692  1
  O  O129  1  0.15100790  0.07325959  0.63036565  1
  O  O130  1  0.64632623  0.45084056  0.64105999  1
  O  O131  1  0.86001144  0.55215546  0.63976016  1
  O  O132  1  0.46874724  0.16261383  0.64592101  1
  O  O133  1  0.06124860  0.88088579  0.61809233  1
  O  O134  1  0.98204723  0.34828262  0.64728305  1
  O  O135  1  0.53027315  0.65491599  0.64325738  1
  O  O136  1  0.79012991  0.18258017  0.66048211  1
  O  O137  1  0.71738003  0.80955792  0.65806891  1
  O  O138  1  0.27515287  0.27977208  0.65572617  1
  O  O139  1  0.21617778  0.72731919  0.65515809  1
  O  O140  1  0.95769417  0.01235544  0.66727568  1
  O  O141  1  0.55729955  0.98492042  0.66798154  1
  O  O142  1  0.06781718  0.53132269  0.66992494  1
  O  O143  1  0.43816337  0.46749674  0.66945716  1
  O  O144  1  0.09618110  0.20338222  0.01208885  1
  O  O145  1  0.40159111  0.79423606  0.01268080  1
  O  O146  1  0.60321896  0.27984327  0.01378144  1
  O  O147  1  0.90787581  0.72995220  0.00921500  1
  O  O148  1  0.30437265  0.09053754  0.01805531  1
  O  O149  1  0.18577814  0.90660500  0.01682521  1
  O  O150  1  0.81341869  0.39240589  0.02132069  1
  O  O151  1  0.69904647  0.60292912  0.01705263  1
  O  O152  1  0.20148741  0.39213477  0.03230884  1
  O  O153  1  0.30001657  0.60633833  0.03088183  1
  O  O154  1  0.69562819  0.09424938  0.03799108  1
  O  O155  1  0.80356564  0.90605823  0.03668420  1
  O  O156  1  0.40362107  0.27207102  0.04443621  1
  O  O157  1  0.09579698  0.72638241  0.04484806  1
  O  O158  1  0.90479124  0.20315298  0.04485223  1
  O  O159  1  0.59905567  0.78979190  0.04239846  1
  O  O160  1  0.95248289  0.53241525  0.05150521  1
  O  O161  1  0.55096897  0.47221138  0.05140780  1
  O  O162  1  0.05753587  0.02200429  0.05827818  1
  O  O163  1  0.44639177  0.97711511  0.05747222  1
  O  O164  1  0.71738189  0.30488158  0.06931224  1
  O  O165  1  0.78826418  0.69625244  0.06747575  1
  O  O166  1  0.21480795  0.18844433  0.06846251  1
  O  O167  1  0.28401411  0.81169159  0.06790552  1
  O  O168  1  0.03630478  0.35198998  0.07996244  1
  O  O169  1  0.46488042  0.65078481  0.07914525  1
  O  O170  1  0.53688971  0.14535133  0.08581703  1
  O  O171  1  0.96427104  0.85338470  0.08360640  1
  O  O172  1  0.34634821  0.44555879  0.08472220  1
  O  O173  1  0.15502971  0.55659893  0.08450320  1
  O  O174  1  0.65352024  0.94188564  0.09037899  1
  O  O175  1  0.84628802  0.05110020  0.09101211  1
  O  O176  1  0.84627280  0.44889842  0.10300091  1
  O  O177  1  0.65353463  0.55810234  0.10361593  1
  O  O178  1  0.15503974  0.94338976  0.10951659  1
  O  O179  1  0.34635806  0.05450174  0.10929055  1
  O  O180  1  0.96424515  0.64656001  0.11043329  1
  O  O181  1  0.53687062  0.35463890  0.10815822  1
  O  O182  1  0.46487223  0.84925642  0.11485067  1
  O  O183  1  0.03636242  0.14796407  0.11408754  1
  O  O184  1  0.28404307  0.68828025  0.12611607  1
  O  O185  1  0.21481837  0.31154743  0.12557068  1
  O  O186  1  0.78828069  0.80379396  0.12652466  1
  O  O187  1  0.71736448  0.19513604  0.12470009  1
  O  O188  1  0.44644788  0.52285927  0.13654305  1
  O  O189  1  0.05756072  0.47798961  0.13575361  1
  O  O190  1  0.55095058  0.02780113  0.14260328  1
  O  O191  1  0.95250429  0.96755361  0.14252326  1
  O  O192  1  0.59907537  0.71022387  0.15157487  1
  O  O193  1  0.90480174  0.29685440  0.14916374  1
  O  O194  1  0.09581297  0.77359912  0.14918635  1
  O  O195  1  0.40367679  0.22792538  0.14960351  1
  O  O196  1  0.80356974  0.59392119  0.15735165  1
  O  O197  1  0.69561042  0.40573827  0.15599927  1
  O  O198  1  0.30004938  0.89365727  0.16311930  1
  O  O199  1  0.20156316  0.10784197  0.16172133  1
  O  O200  1  0.69906085  0.89712729  0.17694275  1
  O  O201  1  0.81344370  0.10760899  0.17268495  1
  O  O202  1  0.18584602  0.59339128  0.17720223  1
  O  O203  1  0.30441456  0.40945713  0.17597353  1
  O  O204  1  0.90784505  0.77002630  0.18481606  1
  O  O205  1  0.60325548  0.22013914  0.18024254  1
  O  O206  1  0.40166710  0.70579415  0.18134319  1
  O  O207  1  0.09619174  0.29657464  0.18193375  1
  O  O208  1  0.43811428  0.03250867  0.19630216  1
  O  O209  1  0.06775933  0.96868537  0.19585137  1
  O  O210  1  0.55738906  0.51509818  0.19779545  1
  O  O211  1  0.95786144  0.48762560  0.19852468  1
  O  O212  1  0.21620242  0.77273225  0.21060510  1
  O  O213  1  0.27516333  0.22023780  0.21006004  1
  O  O214  1  0.71705431  0.69058553  0.20765922  1
  O  O215  1  0.79010540  0.31743134  0.20527426  1
  O  O216  1  0.53023015  0.84515609  0.22247120  1
  O  O217  1  0.98197639  0.15173932  0.21851909  1
  O  O218  1  0.06176805  0.61877600  0.24777608  1
  O  O219  1  0.46882465  0.33742986  0.21983454  1
  O  O220  1  0.85991138  0.94786470  0.22600728  1
  O  O221  1  0.64627221  0.04921644  0.22470320  1
  O  O222  1  0.15100013  0.42655210  0.23542075  1
  O  O223  1  0.34733256  0.55998608  0.22925755  1
  O  O224  1  0.34257698  0.93938122  0.24811017  1
  O  O225  1  0.16197520  0.06756073  0.24883143  1
  O  O226  1  0.65163492  0.42508124  0.24885968  1
  O  O227  1  0.83879551  0.55386416  0.24774742  1
  O  O228  1  0.39761558  0.07807951  0.59506845  1
  O  O229  1  0.58017904  0.53483520  0.58858104  1
  O  O230  1  0.93107977  0.43821822  0.59044065  1
  O  O231  1  0.26499254  0.80690401  0.59364958  1
  O  O232  1  0.73678514  0.68827353  0.60608044  1
  O  O233  1  0.76431769  0.29385031  0.60430456  1
  O  O234  1  0.54930367  0.87399860  0.61075678  1
  O  O235  1  0.95277105  0.15835560  0.60935690  1
  O  O236  1  0.05394563  0.63951229  0.61501452  1
  O  O237  1  0.44909926  0.35595389  0.61479127  1
  O  O238  1  0.44908592  0.14406602  0.25094878  1
  O  O239  1  0.05383400  0.86039080  0.25074735  1
  O  O240  1  0.95251904  0.34180291  0.25647937  1
  O  O241  1  0.54926718  0.62608218  0.25499117  1
  O  O242  1  0.76423841  0.20611469  0.26148606  1
  O  O243  1  0.73665508  0.81170628  0.25969875  1
  O  O244  1  0.26514438  0.69313782  0.27212314  1
  O  O245  1  0.93097625  0.06164802  0.27534492  1
  O  O246  1  0.58006020  0.96511723  0.27717381  1
  O  O247  1  0.39765337  0.42190101  0.27068285  1
