# generated using pymatgen
data_Li7La3Zr2O12
_symmetry_space_group_name_H-M   'P 1'
_cell_length_a   13.20454200
_cell_length_b   21.22125973
_cell_length_c   48.41663739
_cell_angle_alpha   90.00000000
_cell_angle_beta   90.00000000
_cell_angle_gamma   108.12648040
_symmetry_Int_Tables_number   1
_chemical_formula_structural   Li7La3Zr2O12
_chemical_formula_sum   'Li112 La48 Zr32 O192'
_cell_volume   12893.85493570
_cell_formula_units_Z   16
loop_
 _symmetry_equiv_pos_site_id
 _symmetry_equiv_pos_as_xyz
  1  'x, y, z'
loop_
 _atom_site_type_symbol
 _atom_site_label
 _atom_site_symmetry_multiplicity
 _atom_site_fract_x
 _atom_site_fract_y
 _atom_site_fract_z
 _atom_site_occupancy
  Li  Li0  1  0.65042475  0.11608735  0.56967314  1
  Li  Li1  1  0.45846208  0.47540017  0.56886748  1
  Li  Li2  1  0.74371052  0.54526990  0.54350083  1
  Li  Li3  1  0.33121121  0.81296411  0.57005605  1
  Li  Li4  1  0.72228031  0.28005330  0.57974875  1
  Li  Li5  1  0.56980815  0.62092658  0.56984228  1
  Li  Li6  1  0.23302995  0.09892302  0.57688535  1
  Li  Li7  1  0.61775706  0.53249312  0.58702451  1
  Li  Li8  1  0.19099180  0.70430139  0.58402322  1
  Li  Li9  1  0.51849971  0.20805292  0.58809552  1
  Li  Li10  1  0.69719089  0.04441055  0.00874214  1
  Li  Li11  1  0.08246648  0.98360504  0.59026530  1
  Li  Li12  1  0.94948811  0.33750294  0.56852245  1
  Li  Li13  1  0.75126380  0.69196871  0.56655422  1
  Li  Li14  1  0.91337618  0.86330583  0.57144189  1
  Li  Li15  1  0.34276023  0.18685533  0.02224252  1
  Li  Li16  1  0.79432231  0.58700263  0.59072908  1
  Li  Li17  1  0.39838674  0.47804666  0.03016185  1
  Li  Li18  1  0.05440511  0.29229687  0.02675593  1
  Li  Li19  1  0.23606478  0.80132556  0.02736826  1
  Li  Li20  1  0.90918391  0.96475987  0.02872667  1
  Li  Li21  1  0.86124929  0.38071496  0.02398894  1
  Li  Li22  1  0.75344237  0.75593958  0.01721998  1
  Li  Li23  1  0.21167171  0.23345317  0.03906501  1
  Li  Li24  1  0.27491675  0.69169096  0.04408854  1
  Li  Li25  1  0.03744687  0.90341128  0.03804735  1
  Li  Li26  1  0.78019229  0.03150543  0.04589034  1
  Li  Li27  1  0.23557366  0.35992253  0.04926243  1
  Li  Li28  1  0.35295574  0.56149935  0.06433977  1
  Li  Li29  1  0.19481363  0.88587540  0.06488055  1
  Li  Li30  1  0.59318721  0.00816058  0.07061733  1
  Li  Li31  1  0.03897148  0.20883600  0.07040339  1
  Li  Li32  1  0.42934111  0.68243641  0.07555368  1
  Li  Li33  1  0.42446989  0.17521293  0.06899005  1
  Li  Li34  1  0.86418755  0.47578888  0.05479875  1
  Li  Li35  1  0.39140023  0.94544095  0.07935568  1
  Li  Li36  1  0.88527799  0.10900873  0.08164807  1
  Li  Li37  1  0.21568159  0.61381591  0.08498230  1
  Li  Li38  1  0.38657179  0.44518185  0.08183095  1
  Li  Li39  1  0.76817965  0.39087631  0.08804016  1
  Li  Li40  1  0.62490275  0.73466404  0.08659931  1
  Li  Li41  1  0.47092346  0.07143841  0.09061174  1
  Li  Li42  1  0.55124696  0.24611886  0.10780545  1
  Li  Li43  1  0.03408044  0.58510781  0.10741501  1
  Li  Li44  1  0.52990384  0.91932597  0.11366033  1
  Li  Li45  1  0.11782139  0.88104064  0.11217098  1
  Li  Li46  1  0.77508618  0.71243594  0.11602800  1
  Li  Li47  1  0.94242806  0.21439916  0.11564369  1
  Li  Li48  1  0.60420482  0.38004535  0.11645431  1
  Li  Li49  1  0.57361368  0.81044084  0.12505397  1
  Li  Li50  1  0.40268633  0.14643193  0.12712329  1
  Li  Li51  1  0.90784142  0.65211574  0.12510447  1
  Li  Li52  1  0.98159277  0.09684657  0.12780944  1
  Li  Li53  1  0.74301530  0.31289503  0.12707678  1
  Li  Li54  1  0.47231256  0.43883771  0.13186659  1
  Li  Li55  1  0.96858519  0.78747108  0.13325919  1
  Li  Li56  1  0.04706921  0.94090600  0.15042299  1
  Li  Li57  1  0.89719762  0.28966467  0.15151824  1
  Li  Li58  1  0.30184603  0.41681328  0.15741214  1
  Li  Li59  1  0.74028524  0.61931200  0.15908087  1
  Li  Li60  1  0.12689686  0.07775644  0.15858942  1
  Li  Li61  1  0.12485603  0.58132581  0.15572142  1
  Li  Li62  1  0.62621244  0.91716445  0.16056643  1
  Li  Li63  1  0.08516993  0.34498612  0.16674542  1
  Li  Li64  1  0.58535812  0.51349689  0.16893340  1
  Li  Li65  1  0.92758720  0.01483155  0.16870835  1
  Li  Li66  1  0.10474102  0.84814474  0.16964147  1
  Li  Li67  1  0.46359397  0.79395920  0.17423221  1
  Li  Li68  1  0.31675356  0.14401373  0.17625807  1
  Li  Li69  1  0.16656786  0.46718954  0.17786738  1
  Li  Li70  1  0.27002979  0.66843730  0.19250755  1
  Li  Li71  1  0.75559975  0.99476700  0.19715867  1
  Li  Li72  1  0.24026777  0.33896137  0.19629864  1
  Li  Li73  1  0.80839261  0.28344002  0.20037261  1
  Li  Li74  1  0.46938731  0.11423268  0.20092582  1
  Li  Li75  1  0.64983619  0.62676649  0.20704861  1
  Li  Li76  1  0.29352077  0.79194156  0.20288773  1
  Li  Li77  1  0.25141695  0.25107425  0.22888455  1
  Li  Li78  1  0.11746359  0.55402444  0.20855444  1
  Li  Li79  1  0.61047000  0.04734877  0.20793171  1
  Li  Li80  1  0.69412187  0.52005091  0.21319645  1
  Li  Li81  1  0.44763696  0.71806024  0.21581995  1
  Li  Li82  1  0.16059664  0.84485024  0.21885469  1
  Li  Li83  1  0.65764470  0.16752083  0.21946076  1
  Li  Li84  1  0.73980354  0.35407086  0.23642970  1
  Li  Li85  1  0.61087764  0.70223904  0.23851786  1
  Li  Li86  1  0.92214827  0.80543816  0.25588109  1
  Li  Li87  1  0.44306719  0.02601052  0.24278409  1
  Li  Li88  1  0.84485152  0.49164361  0.24414755  1
  Li  Li89  1  0.85915747  0.96912121  0.26600729  1
  Li  Li90  1  0.34548949  0.34056775  0.25891230  1
  Li  Li91  1  0.70215064  0.67865388  0.29541249  1
  Li  Li92  1  0.28619391  0.92387523  0.25294507  1
  Li  Li93  1  0.64395925  0.43263679  0.25654125  1
  Li  Li94  1  0.78382456  0.25214526  0.25373372  1
  Li  Li95  1  0.06923062  0.14140093  0.28468247  1
  Li  Li96  1  0.03550746  0.54106244  0.26203795  1
  Li  Li97  1  0.90257212  0.85961041  0.30543310  1
  Li  Li98  1  0.81043220  0.10842510  0.30538651  1
  Li  Li99  1  0.47722530  0.36958647  0.30964246  1
  Li  Li100  1  0.94718371  0.72516263  0.29007685  1
  Li  Li101  1  0.51477998  0.68629908  0.27919724  1
  Li  Li102  1  0.19007507  0.51263803  0.29140725  1
  Li  Li103  1  0.34978451  0.02738521  0.29052662  1
  Li  Li104  1  0.94948730  0.19784467  0.28902486  1
  Li  Li105  1  0.98477248  0.61250856  0.28986916  1
  Li  Li106  1  0.91666437  0.03478001  0.30698115  1
  Li  Li107  1  0.33271434  0.44072779  0.28914612  1
  Li  Li108  1  0.40888818  0.93162653  0.29552642  1
  Li  Li109  1  0.05691462  0.18026608  0.33243073  1
  Li  Li110  1  0.84374607  0.25680154  0.30650594  1
  Li  Li111  1  0.41261249  0.60053567  0.30532738  1
  La  La112  1  0.90080162  0.05233510  0.56606735  1
  La  La113  1  0.12363557  0.22275459  0.57419836  1
  La  La114  1  0.97748620  0.49435569  0.57259611  1
  La  La115  1  0.41712251  0.33257846  0.00261266  1
  La  La116  1  0.29491606  0.59168269  0.00417628  1
  La  La117  1  0.99188632  0.76307655  0.01021595  1
  La  La118  1  0.49968139  0.75444842  0.01631454  1
  La  La119  1  0.46875799  0.93334779  0.01522534  1
  La  La120  1  0.84237682  0.18725769  0.01992161  1
  La  La121  1  0.27786190  0.03537688  0.04261231  1
  La  La122  1  0.63962423  0.28376187  0.04690526  1
  La  La123  1  0.10309772  0.46768874  0.06007034  1
  La  La124  1  0.60928200  0.46442034  0.05874109  1
  La  La125  1  0.82092984  0.63401061  0.06367809  1
  La  La126  1  0.69353924  0.88231087  0.06937473  1
  La  La127  1  0.11813887  0.73762304  0.08696294  1
  La  La128  1  0.99713220  0.98334728  0.08918991  1
  La  La129  1  0.70693080  0.16411672  0.09846838  1
  La  La130  1  0.20824848  0.16128490  0.09895655  1
  La  La131  1  0.16773622  0.33648394  0.10877399  1
  La  La132  1  0.54673470  0.58801452  0.11104449  1
  La  La133  1  0.96813724  0.43893435  0.13137625  1
  La  La134  1  0.34764730  0.69106021  0.13188555  1
  La  La135  1  0.81229740  0.86492518  0.14203254  1
  La  La136  1  0.31257637  0.86492208  0.14098747  1
  La  La137  1  0.51924541  0.03990882  0.15098034  1
  La  La138  1  0.39382295  0.29027056  0.15318074  1
  La  La139  1  0.82327375  0.14121058  0.17296999  1
  La  La140  1  0.69259862  0.39349100  0.17592577  1
  La  La141  1  0.40664564  0.56721917  0.18584922  1
  La  La142  1  0.91117995  0.56699216  0.18397086  1
  La  La143  1  0.87650107  0.74513850  0.19546662  1
  La  La144  1  0.24573486  0.99281715  0.19549058  1
  La  La145  1  0.68481719  0.84650577  0.21470022  1
  La  La146  1  0.05038209  0.09536307  0.21960606  1
  La  La147  1  0.50129877  0.26334005  0.22513303  1
  La  La148  1  0.00990233  0.26524040  0.22510507  1
  La  La149  1  0.21846826  0.44278615  0.23822068  1
  La  La150  1  0.09601421  0.69532639  0.23633742  1
  La  La151  1  0.53432380  0.55339632  0.26153228  1
  La  La152  1  0.40218730  0.80199197  0.26305820  1
  La  La153  1  0.08955718  0.96844794  0.27210856  1
  La  La154  1  0.61702873  0.97474720  0.26583777  1
  La  La155  1  0.56602051  0.13939415  0.27940740  1
  La  La156  1  0.94391322  0.39698051  0.28174924  1
  La  La157  1  0.34093579  0.22673185  0.30356937  1
  La  La158  1  0.77742853  0.50877840  0.30094712  1
  La  La159  1  0.22067402  0.68151443  0.31147458  1
  Zr  Zr160  1  0.70175940  0.40862399  0.58448024  1
  Zr  Zr161  1  0.21586686  0.90711759  0.58384691  1
  Zr  Zr162  1  0.69925164  0.89270496  0.58847382  1
  Zr  Zr163  1  0.20521526  0.40484537  0.58271452  1
  Zr  Zr164  1  0.55597762  0.10745679  0.03097755  1
  Zr  Zr165  1  0.56010657  0.61177981  0.03580702  1
  Zr  Zr166  1  0.05235361  0.61206476  0.03277373  1
  Zr  Zr167  1  0.05990539  0.10063518  0.03464185  1
  Zr  Zr168  1  0.40528685  0.81380789  0.07657428  1
  Zr  Zr169  1  0.90801735  0.31176819  0.07579162  1
  Zr  Zr170  1  0.40562237  0.31245389  0.07712085  1
  Zr  Zr171  1  0.90314393  0.80958171  0.07615254  1
  Zr  Zr172  1  0.25972849  0.51326109  0.12160618  1
  Zr  Zr173  1  0.26046311  0.01404633  0.11936327  1
  Zr  Zr174  1  0.75669863  0.01377288  0.12064246  1
  Zr  Zr175  1  0.76042890  0.51453665  0.12088376  1
  Zr  Zr176  1  0.11214189  0.21334734  0.16277549  1
  Zr  Zr177  1  0.60910511  0.71566817  0.16384240  1
  Zr  Zr178  1  0.11035724  0.71442207  0.16206728  1
  Zr  Zr179  1  0.60886180  0.21633787  0.16313891  1
  Zr  Zr180  1  0.96366095  0.91888708  0.20721023  1
  Zr  Zr181  1  0.95801252  0.41623644  0.20650454  1
  Zr  Zr182  1  0.45929902  0.41851877  0.20984586  1
  Zr  Zr183  1  0.45446484  0.91653098  0.20579082  1
  Zr  Zr184  1  0.82006306  0.62743464  0.24962941  1
  Zr  Zr185  1  0.30427001  0.11630347  0.25046824  1
  Zr  Zr186  1  0.81405202  0.11880518  0.24802749  1
  Zr  Zr187  1  0.31090368  0.61640030  0.25335743  1
  Zr  Zr188  1  0.66368975  0.33419791  0.29449309  1
  Zr  Zr189  1  0.66131971  0.82976473  0.28698946  1
  Zr  Zr190  1  0.16488872  0.82317389  0.28943126  1
  Zr  Zr191  1  0.15857143  0.31826778  0.29123392  1
  O  O192  1  0.69212891  0.60088398  0.56076619  1
  O  O193  1  0.33552972  0.40640061  0.56302196  1
  O  O194  1  0.78714541  0.10584534  0.57219452  1
  O  O195  1  0.82933615  0.37127243  0.57564148  1
  O  O196  1  0.35962590  0.90794676  0.56943070  1
  O  O197  1  0.85486083  0.77042420  0.57665332  1
  O  O198  1  0.97710921  0.25835357  0.57949395  1
  O  O199  1  0.80131801  0.49716761  0.56698740  1
  O  O200  1  0.29829848  0.22727004  0.58182380  1
  O  O201  1  0.54794238  0.85575851  0.57781310  1
  O  O202  1  0.17827619  0.80014291  0.58149641  1
  O  O203  1  0.08179387  0.10466634  0.57845103  1
  O  O204  1  0.33660844  0.69934018  0.58450153  1
  O  O205  1  0.22844049  0.00903895  0.58492276  1
  O  O206  1  0.11195546  0.59620901  0.58330968  1
  O  O207  1  0.84859686  0.93799166  0.57122252  1
  O  O208  1  0.59504803  0.30958258  0.58580607  1
  O  O209  1  0.47051005  0.55134858  0.00075416  1
  O  O210  1  0.56016467  0.04326696  0.59103097  1
  O  O211  1  0.56398924  0.43693654  0.58499572  1
  O  O212  1  0.04793452  0.88769072  0.58990063  1
  O  O213  1  0.61430494  0.68711561  0.00696747  1
  O  O214  1  0.07435505  0.41845190  0.56528543  1
  O  O215  1  0.65474108  0.19030210  0.00488557  1
  O  O216  1  0.19942766  0.32142225  0.01192046  1
  O  O217  1  0.42149019  0.12906549  0.01921880  1
  O  O218  1  0.69429677  0.82632745  0.02479222  1
  O  O219  1  0.92130345  0.63517771  0.01895837  1
  O  O220  1  0.89958582  0.05731254  0.02150552  1
  O  O221  1  0.24537239  0.46987737  0.02192156  1
  O  O222  1  0.68198486  0.95770064  0.02442861  1
  O  O223  1  0.05711149  0.19919679  0.02961289  1
  O  O224  1  0.68048024  0.56494007  0.03126072  1
  O  O225  1  0.27189701  0.91775444  0.03113598  1
  O  O226  1  0.97805431  0.49819863  0.02791998  1
  O  O227  1  0.38185393  0.81263120  0.03381984  1
  O  O228  1  0.73302758  0.40964951  0.03356545  1
  O  O229  1  0.14442753  0.70980740  0.03465874  1
  O  O230  1  0.41966815  0.64242386  0.03988833  1
  O  O231  1  0.83256124  0.29242959  0.03606164  1
  O  O232  1  0.06705896  0.00410940  0.03751295  1
  O  O233  1  0.43686972  0.26160506  0.04188276  1
  O  O234  1  0.84735611  0.74099809  0.04529919  1
  O  O235  1  0.19464380  0.58505233  0.04670059  1
  O  O236  1  0.22198327  0.13858162  0.04428728  1
  O  O237  1  0.40469604  0.38998711  0.04771930  1
  O  O238  1  0.70836420  0.09885431  0.04572832  1
  O  O239  1  0.89395879  0.89702659  0.05685408  1
  O  O240  1  0.46132840  0.02573479  0.05417631  1
  O  O241  1  0.05665755  0.82239360  0.05845984  1
  O  O242  1  0.47707890  0.52765216  0.06291000  1
  O  O243  1  0.53201993  0.77577187  0.06809951  1
  O  O244  1  0.06714094  0.34382188  0.06048323  1
  O  O245  1  0.57208823  0.17571379  0.06677276  1
  O  O246  1  0.63565375  0.65231317  0.07229472  1
  O  O247  1  0.51579660  0.91033222  0.07327493  1
  O  O248  1  0.00608512  0.62397392  0.07334210  1
  O  O249  1  0.23606767  0.27576584  0.07349186  1
  O  O250  1  0.89275891  0.20820306  0.07547608  1
  O  O251  1  0.78059961  0.51159497  0.07808391  1
  O  O252  1  0.02734487  0.10701297  0.07607312  1
  O  O253  1  0.92042781  0.41396901  0.07813271  1
  O  O254  1  0.80296953  0.00175656  0.08001045  1
  O  O255  1  0.57728905  0.35160306  0.07899616  1
  O  O256  1  0.29983512  0.71335297  0.08252203  1
  O  O257  1  0.18011558  0.96155967  0.08473323  1
  O  O258  1  0.24847714  0.44933281  0.08655676  1
  O  O259  1  0.27298405  0.84489459  0.08837154  1
  O  O260  1  0.74461857  0.28887762  0.08923597  1
  O  O261  1  0.33712805  0.09441604  0.09232034  1
  O  O262  1  0.75508394  0.80358977  0.09607954  1
  O  O263  1  0.35420786  0.59862393  0.10014215  1
  O  O264  1  0.92308504  0.72882354  0.10003217  1
  O  O265  1  0.11512445  0.52315250  0.10476982  1
  O  O266  1  0.40013036  0.23263016  0.10375135  1
  O  O267  1  0.62310526  0.04483808  0.10751275  1
  O  O268  1  0.59511839  0.48058395  0.11006443  1
  O  O269  1  0.96960318  0.87497678  0.11219273  1
  O  O270  1  0.37921468  0.36478131  0.11202206  1
  O  O271  1  0.75405520  0.61218010  0.11780624  1
  O  O272  1  0.39353337  0.97758819  0.11651407  1
  O  O273  1  0.97112122  0.32157909  0.11671671  1
  O  O274  1  0.67124176  0.91048133  0.12049661  1
  O  O275  1  0.08532932  0.21557666  0.11847782  1
  O  O276  1  0.43263822  0.81275879  0.12068756  1
  O  O277  1  0.84614609  0.11774380  0.12132728  1
  O  O278  1  0.13017452  0.05439176  0.12100775  1
  O  O279  1  0.54609932  0.70433695  0.12282700  1
  O  O280  1  0.76399022  0.41383093  0.12652771  1
  O  O281  1  0.13860769  0.66172804  0.12734928  1
  O  O282  1  0.55031846  0.15618350  0.12786973  1
  O  O283  1  0.89680352  0.98948440  0.13128670  1
  O  O284  1  0.92263980  0.54435256  0.13349868  1
  O  O285  1  0.11911819  0.79498981  0.13542662  1
  O  O286  1  0.40042749  0.50312822  0.13906395  1
  O  O287  1  0.59241499  0.30085781  0.14143247  1
  O  O288  1  0.16007449  0.42699547  0.14226459  1
  O  O289  1  0.76017345  0.22646832  0.14563961  1
  O  O290  1  0.18837735  0.93379164  0.14670696  1
  O  O291  1  0.24442187  0.18404700  0.15037333  1
  O  O292  1  0.77256181  0.74407842  0.15269881  1
  O  O293  1  0.26486579  0.57630116  0.15607880  1
  O  O294  1  0.33964288  0.06724802  0.15518607  1
  O  O295  1  0.21694415  0.31468981  0.15778778  1
  O  O296  1  0.70694576  0.02603916  0.16155012  1
  O  O297  1  0.94327637  0.67705660  0.16187541  1
  O  O298  1  0.58865019  0.61179900  0.16338035  1
  O  O299  1  0.48389335  0.92023506  0.16257730  1
  O  O300  1  0.72900592  0.51418822  0.16480244  1
  O  O301  1  0.62141783  0.81853653  0.16506318  1
  O  O302  1  0.50860542  0.40708201  0.16781774  1
  O  O303  1  0.28153692  0.75221208  0.16680159  1
  O  O304  1  0.00889725  0.11607914  0.16695494  1
  O  O305  1  0.88166193  0.36429657  0.17139327  1
  O  O306  1  0.96396963  0.85452770  0.17159933  1
  O  O307  1  0.97994274  0.24785146  0.17303242  1
  O  O308  1  0.44329313  0.68942670  0.17746888  1
  O  O309  1  0.03748154  0.49544289  0.17915251  1
  O  O310  1  0.45637556  0.20774948  0.18040210  1
  O  O311  1  0.06116357  0.00046755  0.18306361  1
  O  O312  1  0.61795893  0.13052738  0.18394700  1
  O  O313  1  0.81965913  0.92708544  0.18731037  1
  O  O314  1  0.10904892  0.63582170  0.19055981  1
  O  O315  1  0.31963564  0.44316683  0.19550403  1
  O  O316  1  0.28991889  0.88508360  0.19520807  1
  O  O317  1  0.66552311  0.28160149  0.19747411  1
  O  O318  1  0.08946022  0.76750183  0.19793932  1
  O  O319  1  0.45040685  0.01610313  0.20214340  1
  O  O320  1  0.09403514  0.37883977  0.20365311  1
  O  O321  1  0.66773201  0.72860733  0.20404530  1
  O  O322  1  0.36942937  0.31674127  0.20773005  1
  O  O323  1  0.79152585  0.61906792  0.20542169  1
  O  O324  1  0.13318407  0.21652831  0.20554721  1
  O  O325  1  0.54685194  0.52254433  0.20892662  1
  O  O326  1  0.83053004  0.45710285  0.20802112  1
  O  O327  1  0.24725088  0.10474475  0.20997716  1
  O  O328  1  0.45487188  0.81740634  0.21276713  1
  O  O329  1  0.84866935  0.07689749  0.21186976  1
  O  O330  1  0.25476664  0.55364288  0.21968024  1
  O  O331  1  0.59053750  0.38786665  0.22257712  1
  O  O332  1  0.61973931  0.95142160  0.21532415  1
  O  O333  1  0.81387954  0.20091008  0.22059375  1
  O  O334  1  0.10683820  0.91510925  0.22549876  1
  O  O335  1  0.29244142  0.70018095  0.23258435  1
  O  O336  1  0.85988695  0.83386368  0.22489142  1
  O  O337  1  0.46469685  0.63478345  0.23762967  1
  O  O338  1  0.88431991  0.33646734  0.23426512  1
  O  O339  1  0.95639614  0.59014018  0.24141395  1
  O  O340  1  0.47669749  0.14702140  0.23805654  1
  O  O341  1  0.96921662  0.98760225  0.23824536  1
  O  O342  1  0.04072925  0.46561947  0.24225107  1
  O  O343  1  0.93144126  0.72055602  0.24483807  1
  O  O344  1  0.40376847  0.43366805  0.24980795  1
  O  O345  1  0.64405867  0.08721863  0.24373619  1
  O  O346  1  0.29682635  0.01837516  0.24956837  1
  O  O347  1  0.18559106  0.31749615  0.25036852  1
  O  O348  1  0.42869293  0.91801254  0.24978720  1
  O  O349  1  0.34120204  0.22751144  0.25595701  1
  O  O350  1  0.21309481  0.81236067  0.25119869  1
  O  O351  1  0.98038564  0.16531000  0.25276460  1
  O  O352  1  0.72080429  0.52521639  0.25519982  1
  O  O353  1  0.57172114  0.76868602  0.25878638  1
  O  O354  1  0.64573528  0.27198490  0.26096653  1
  O  O355  1  0.68368014  0.65012529  0.25282235  1
  O  O356  1  0.14867247  0.09238092  0.26459988  1
  O  O357  1  0.72928951  0.89888884  0.25999758  1
  O  O358  1  0.16668350  0.59892174  0.27736679  1
  O  O359  1  0.77573995  0.41075918  0.26909771  1
  O  O360  1  0.33515294  0.53673533  0.27792873  1
  O  O361  1  0.51583033  0.28594137  0.31170620  1
  O  O362  1  0.79284586  0.04140521  0.27663783  1
  O  O363  1  0.01452454  0.82950888  0.28854910  1
  O  O364  1  0.99196889  0.29372919  0.29070839  1
  O  O365  1  0.37238929  0.68043850  0.28948193  1
  O  O366  1  0.78177686  0.17897110  0.28305464  1
  O  O367  1  0.16426979  0.41794673  0.28984350  1
  O  O368  1  0.76036939  0.78680674  0.30325732  1
  O  O369  1  0.37595755  0.12630936  0.29153703  1
  O  O370  1  0.08556272  0.70925096  0.29210271  1
  O  O371  1  0.49945676  0.02803475  0.28843871  1
  O  O372  1  0.84495252  0.62691290  0.29286949  1
  O  O373  1  0.24727298  0.92163358  0.29267504  1
  O  O374  1  0.54215116  0.87184791  0.29471250  1
  O  O375  1  0.94662234  0.50907468  0.29610357  1
  O  O376  1  0.16139150  0.22846247  0.30899434  1
  O  O377  1  0.61538390  0.42097401  0.29931933  1
  O  O378  1  0.94745792  0.95565684  0.29760178  1
  O  O379  1  0.28743855  0.79048434  0.30597618  1
  O  O380  1  0.32796376  0.34729282  0.29925706  1
  O  O381  1  0.55367371  0.61762131  0.29908254  1
  O  O382  1  0.79485036  0.32901620  0.31280661  1
  O  O383  1  0.95123938  0.12571400  0.31438462  1
