# generated using pymatgen
data_Li20La8Zr5O32
_symmetry_space_group_name_H-M   'P 1'
_cell_length_a   12.70453900
_cell_length_b   13.20454200
_cell_length_c   48.18935204
_cell_angle_alpha   90.00000000
_cell_angle_beta   90.00000000
_cell_angle_gamma   90.00000000
_symmetry_Int_Tables_number   1
_chemical_formula_structural   Li20La8Zr5O32
_chemical_formula_sum   'Li80 La32 Zr20 O128'
_cell_volume   8084.13094992
_cell_formula_units_Z   4
loop_
 _symmetry_equiv_pos_site_id
 _symmetry_equiv_pos_as_xyz
  1  'x, y, z'
loop_
 _atom_site_type_symbol
 _atom_site_label
 _atom_site_symmetry_multiplicity
 _atom_site_fract_x
 _atom_site_fract_y
 _atom_site_fract_z
 _atom_site_occupancy
  Li  Li0  1  0.70715557  0.88681463  0.21130662  1
  Li  Li1  1  0.79780008  0.10300079  0.21226163  1
  Li  Li2  1  0.19609167  0.57808170  0.21260398  1
  Li  Li3  1  0.30485904  0.39947901  0.21227099  1
  Li  Li4  1  0.86964287  0.24661743  0.24012158  1
  Li  Li5  1  0.62976974  0.75608894  0.23715511  1
  Li  Li6  1  0.36881971  0.25388444  0.23890276  1
  Li  Li7  1  0.13389705  0.73966690  0.23502881  1
  Li  Li8  1  0.31199243  0.09361964  0.25907754  1
  Li  Li9  1  0.18294907  0.90854288  0.25305008  1
  Li  Li10  1  0.80870947  0.41114268  0.26025866  1
  Li  Li11  1  0.68807282  0.58036099  0.25540438  1
  Li  Li12  1  0.44193360  0.33121957  0.28206811  1
  Li  Li13  1  0.05849063  0.65993656  0.27971459  1
  Li  Li14  1  0.94744539  0.15887915  0.28353557  1
  Li  Li15  1  0.55633409  0.84472949  0.28010594  1
  Li  Li16  1  0.34913182  0.93443724  0.28346702  1
  Li  Li17  1  0.12337393  0.06269848  0.28358940  1
  Li  Li18  1  0.60983293  0.42934448  0.28419988  1
  Li  Li19  1  0.86159177  0.57287067  0.28271074  1
  Li  Li20  1  0.36147428  0.43154832  0.32447148  1
  Li  Li21  1  0.12304020  0.56768512  0.32425578  1
  Li  Li22  1  0.64304332  0.93547653  0.32433071  1
  Li  Li23  1  0.85118069  0.06493169  0.32577894  1
  Li  Li24  1  0.05526821  0.16373144  0.32894661  1
  Li  Li25  1  0.44890244  0.83189872  0.32641806  1
  Li  Li26  1  0.55532145  0.33472937  0.32919553  1
  Li  Li27  1  0.94668403  0.67044588  0.32676644  1
  Li  Li28  1  0.19286449  0.41307416  0.35230542  1
  Li  Li29  1  0.30875184  0.59057259  0.35010135  1
  Li  Li30  1  0.69026470  0.08932673  0.35431316  1
  Li  Li31  1  0.81074085  0.90649976  0.35217104  1
  Li  Li32  1  0.37630423  0.74999036  0.37325302  1
  Li  Li33  1  0.12667878  0.24996865  0.37325638  1
  Li  Li34  1  0.87793941  0.74994802  0.37323302  1
  Li  Li35  1  0.62580892  0.24993500  0.37322994  1
  Li  Li36  1  0.81073514  0.59346472  0.39434883  1
  Li  Li37  1  0.69022483  0.41053210  0.39213148  1
  Li  Li38  1  0.30871023  0.90948079  0.39640722  1
  Li  Li39  1  0.19292885  0.08682980  0.39421023  1
  Li  Li40  1  0.94660489  0.82942924  0.41969635  1
  Li  Li41  1  0.55530979  0.16534090  0.41731141  1
  Li  Li42  1  0.44890576  0.66801237  0.42010538  1
  Li  Li43  1  0.05523786  0.33630038  0.41753904  1
  Li  Li44  1  0.85102113  0.43503031  0.42071016  1
  Li  Li45  1  0.64293667  0.56447610  0.42212998  1
  Li  Li46  1  0.12275587  0.93218167  0.42222972  1
  Li  Li47  1  0.36176191  0.06858364  0.42201497  1
  Li  Li48  1  0.86167280  0.92713937  0.46372359  1
  Li  Li49  1  0.60954989  0.07070189  0.46228239  1
  Li  Li50  1  0.12331286  0.43733201  0.46291953  1
  Li  Li51  1  0.34903393  0.56555252  0.46305693  1
  Li  Li52  1  0.55633967  0.65524150  0.46639673  1
  Li  Li53  1  0.94740692  0.34113084  0.46296840  1
  Li  Li54  1  0.05847658  0.84005701  0.46679222  1
  Li  Li55  1  0.44179140  0.16890174  0.46447440  1
  Li  Li56  1  0.68803664  0.91966813  0.49103962  1
  Li  Li57  1  0.80864247  0.08879825  0.48620765  1
  Li  Li58  1  0.18285999  0.59145123  0.49346391  1
  Li  Li59  1  0.31201065  0.40636568  0.48741975  1
  Li  Li60  1  0.86957356  0.25336718  0.50638038  1
  Li  Li61  1  0.62969760  0.74397897  0.50933201  1
  Li  Li62  1  0.36875490  0.24619642  0.50762563  1
  Li  Li63  1  0.13385001  0.76032631  0.51147968  1
  Li  Li64  1  0.30480438  0.10050195  0.53420593  1
  Li  Li65  1  0.19603520  0.92198099  0.53387735  1
  Li  Li66  1  0.79774632  0.39707255  0.53424097  1
  Li  Li67  1  0.70713073  0.61337568  0.53520964  1
  Li  Li68  1  0.40268461  0.29096209  0.55009955  1
  Li  Li69  1  0.10265831  0.65688137  0.54686981  1
  Li  Li70  1  0.90509013  0.22011490  0.54990723  1
  Li  Li71  1  0.62819248  0.82955105  0.55359131  1
  Li  Li72  1  0.07712927  0.08347035  0.56197617  1
  Li  Li73  1  0.57907410  0.42098260  0.56129488  1
  Li  Li74  1  0.57909606  0.07903733  0.18522791  1
  Li  Li75  1  0.07723926  0.41650466  0.18452034  1
  Li  Li76  1  0.62831632  0.67042752  0.19289989  1
  Li  Li77  1  0.90517995  0.27984086  0.19659495  1
  Li  Li78  1  0.10269760  0.84313189  0.19965665  1
  Li  Li79  1  0.40271934  0.20906663  0.19643348  1
  La  La80  1  0.25443447  0.01955403  0.20266206  1
  La  La81  1  0.75384436  0.45902634  0.20239128  1
  La  La82  1  0.87964373  0.74662614  0.23472663  1
  La  La83  1  0.37807952  0.76114748  0.23575380  1
  La  La84  1  0.61853488  0.25107595  0.23943121  1
  La  La85  1  0.12218301  0.24367306  0.23818136  1
  La  La86  1  0.75832376  0.99941420  0.26926206  1
  La  La87  1  0.25704224  0.49968898  0.27038037  1
  La  La88  1  0.50239488  0.11879087  0.30496850  1
  La  La89  1  0.00191624  0.37812791  0.30385235  1
  La  La90  1  0.50367637  0.62202237  0.30165517  1
  La  La91  1  0.00159230  0.88022523  0.30434246  1
  La  La92  1  0.75249210  0.50291412  0.33718409  1
  La  La93  1  0.25269539  0.99734131  0.33846068  1
  La  La94  1  0.37831952  0.25002696  0.37324046  1
  La  La95  1  0.87872770  0.25000121  0.37324802  1
  La  La96  1  0.12657084  0.74997620  0.37324492  1
  La  La97  1  0.62497938  0.74998027  0.37324548  1
  La  La98  1  0.25272084  0.50267526  0.40803731  1
  La  La99  1  0.75241729  0.99715212  0.40930041  1
  La  La100  1  0.00158418  0.61974447  0.44215972  1
  La  La101  1  0.50362627  0.87794385  0.44482265  1
  La  La102  1  0.00192628  0.12189779  0.44263267  1
  La  La103  1  0.50240679  0.38122424  0.44153332  1
  La  La104  1  0.25701867  0.00032770  0.47608647  1
  La  La105  1  0.75830081  0.50060469  0.47724012  1
  La  La106  1  0.87961460  0.75342866  0.51175438  1
  La  La107  1  0.37801221  0.73887493  0.51074541  1
  La  La108  1  0.61849588  0.24891580  0.50707541  1
  La  La109  1  0.12216490  0.25635111  0.50831567  1
  La  La110  1  0.75378078  0.04086773  0.54407874  1
  La  La111  1  0.25439437  0.48047119  0.54384527  1
  Zr  Zr112  1  0.99563829  0.00498654  0.22833220  1
  Zr  Zr113  1  0.50312201  0.00765073  0.23419560  1
  Zr  Zr114  1  0.49832079  0.49983973  0.22986673  1
  Zr  Zr115  1  0.00131226  0.49206187  0.23334360  1
  Zr  Zr116  1  0.75044797  0.24863784  0.30639493  1
  Zr  Zr117  1  0.75168068  0.75287802  0.30361929  1
  Zr  Zr118  1  0.24978173  0.24833309  0.30592636  1
  Zr  Zr119  1  0.25037966  0.74855967  0.30353419  1
  Zr  Zr120  1  0.50090499  0.50393888  0.37228110  1
  Zr  Zr121  1  0.00166867  0.50188682  0.37321382  1
  Zr  Zr122  1  0.00166447  0.99810546  0.37329138  1
  Zr  Zr123  1  0.50088911  0.99605582  0.37418704  1
  Zr  Zr124  1  0.25034071  0.75141395  0.44296566  1
  Zr  Zr125  1  0.24978764  0.25171809  0.44056517  1
  Zr  Zr126  1  0.75164254  0.74710237  0.44286225  1
  Zr  Zr127  1  0.75042980  0.25137767  0.44009619  1
  Zr  Zr128  1  0.00125784  0.00797818  0.51313862  1
  Zr  Zr129  1  0.49826292  0.00015777  0.51661093  1
  Zr  Zr130  1  0.50310292  0.49234030  0.51232171  1
  Zr  Zr131  1  0.99557329  0.49502223  0.51817909  1
  O  O132  1  0.44222983  0.06644337  0.19503759  1
  O  O133  1  0.08038981  0.97924211  0.19278816  1
  O  O134  1  0.59074715  0.53552756  0.19550555  1
  O  O135  1  0.94062753  0.42517876  0.19485929  1
  O  O136  1  0.24028139  0.81658337  0.21113034  1
  O  O137  1  0.26294313  0.20464181  0.20923647  1
  O  O138  1  0.73913105  0.74077601  0.20727181  1
  O  O139  1  0.76080329  0.28678498  0.20788756  1
  O  O140  1  0.53620232  0.85929930  0.22391705  1
  O  O141  1  0.95771793  0.15962745  0.21857624  1
  O  O142  1  0.04611955  0.63451500  0.22064422  1
  O  O143  1  0.45883076  0.34515786  0.21846128  1
  O  O144  1  0.83996643  0.95758294  0.22377458  1
  O  O145  1  0.64773577  0.07304552  0.21928748  1
  O  O146  1  0.15057450  0.43186424  0.21788812  1
  O  O147  1  0.34401638  0.54831014  0.22357333  1
  O  O148  1  0.34919211  0.95976994  0.24420862  1
  O  O149  1  0.15131051  0.05936233  0.24377045  1
  O  O150  1  0.65470226  0.43471508  0.24468742  1
  O  O151  1  0.84535706  0.54657023  0.24185438  1
  O  O152  1  0.46238757  0.15367694  0.25387901  1
  O  O153  1  0.03660605  0.85175477  0.24015413  1
  O  O154  1  0.96140571  0.34965846  0.25348211  1
  O  O155  1  0.54068873  0.64316400  0.24841036  1
  O  O156  1  0.78075664  0.18945308  0.26603389  1
  O  O157  1  0.72085102  0.81296522  0.26437959  1
  O  O158  1  0.28073299  0.30851174  0.26555411  1
  O  O159  1  0.21764805  0.68901294  0.26406078  1
  O  O160  1  0.95516316  0.01909849  0.27417264  1
  O  O161  1  0.56803629  0.98648557  0.27501370  1
  O  O162  1  0.06336789  0.51707311  0.27422288  1
  O  O163  1  0.45322356  0.47251857  0.27420921  1
  O  O164  1  0.09678453  0.21160371  0.29039821  1
  O  O165  1  0.40372823  0.79069372  0.28759516  1
  O  O166  1  0.59686882  0.28427481  0.29101083  1
  O  O167  1  0.90708421  0.71521239  0.28745101  1
  O  O168  1  0.30443948  0.09685023  0.29787241  1
  O  O169  1  0.19594668  0.89813968  0.29394438  1
  O  O170  1  0.80870494  0.39938553  0.29844879  1
  O  O171  1  0.70419372  0.60153102  0.29463143  1
  O  O172  1  0.19959657  0.40104396  0.31321136  1
  O  O173  1  0.31158709  0.59747317  0.31065216  1
  O  O174  1  0.69890214  0.09836957  0.31488551  1
  O  O175  1  0.80761683  0.90492527  0.31234180  1
  O  O176  1  0.40346955  0.28573944  0.32066463  1
  O  O177  1  0.09821947  0.71387101  0.31858910  1
  O  O178  1  0.90363966  0.20971913  0.32111397  1
  O  O179  1  0.59933786  0.78744100  0.31830227  1
  O  O180  1  0.95553247  0.52903740  0.33128258  1
  O  O181  1  0.55832014  0.47836686  0.33040317  1
  O  O182  1  0.06029944  0.02165589  0.33187734  1
  O  O183  1  0.44911775  0.97261769  0.33258180  1
  O  O184  1  0.71724789  0.30805933  0.34612642  1
  O  O185  1  0.78729310  0.69711605  0.34432799  1
  O  O186  1  0.21738740  0.19230509  0.34589834  1
  O  O187  1  0.28426814  0.80314039  0.34424962  1
  O  O188  1  0.03645857  0.35368923  0.35944761  1
  O  O189  1  0.46707754  0.65061854  0.35727420  1
  O  O190  1  0.53566633  0.14537774  0.36033648  1
  O  O191  1  0.96755822  0.85071080  0.35740619  1
  O  O192  1  0.34651697  0.44869621  0.36389808  1
  O  O193  1  0.15610290  0.55900120  0.36374453  1
  O  O194  1  0.65551887  0.94120269  0.36475648  1
  O  O195  1  0.84710384  0.05030854  0.36529453  1
  O  O196  1  0.84709229  0.44968994  0.38119792  1
  O  O197  1  0.65554178  0.55880989  0.38171214  1
  O  O198  1  0.15610022  0.94100528  0.38276090  1
  O  O199  1  0.34652909  0.05133086  0.38259455  1
  O  O200  1  0.96754547  0.64927926  0.38910242  1
  O  O201  1  0.53567386  0.35457599  0.38609252  1
  O  O202  1  0.46710401  0.84937621  0.38920896  1
  O  O203  1  0.03645447  0.14628022  0.38708577  1
  O  O204  1  0.28428284  0.69679700  0.40225432  1
  O  O205  1  0.21741620  0.30774676  0.40059116  1
  O  O206  1  0.78725103  0.80278288  0.40213771  1
  O  O207  1  0.71719075  0.19193776  0.40036582  1
  O  O208  1  0.44925960  0.52734738  0.41390054  1
  O  O209  1  0.06034364  0.47836748  0.41462098  1
  O  O210  1  0.55819611  0.02169509  0.41607575  1
  O  O211  1  0.95552517  0.97088850  0.41521886  1
  O  O212  1  0.59930010  0.71251747  0.42818174  1
  O  O213  1  0.90361597  0.29031531  0.42537867  1
  O  O214  1  0.09819334  0.78607242  0.42790527  1
  O  O215  1  0.40350513  0.21435672  0.42583025  1
  O  O216  1  0.80757513  0.59504200  0.43417089  1
  O  O217  1  0.69883951  0.40160951  0.43158207  1
  O  O218  1  0.31161785  0.90245134  0.43584800  1
  O  O219  1  0.19966599  0.09901796  0.43329188  1
  O  O220  1  0.70415472  0.89847418  0.45181956  1
  O  O221  1  0.80874729  0.10062098  0.44801851  1
  O  O222  1  0.19590068  0.60184524  0.45256766  1
  O  O223  1  0.30448293  0.40321378  0.44862109  1
  O  O224  1  0.90704355  0.78475611  0.45902898  1
  O  O225  1  0.59685879  0.21575433  0.45548630  1
  O  O226  1  0.40367965  0.70924991  0.45891125  1
  O  O227  1  0.09679358  0.28843491  0.45609372  1
  O  O228  1  0.45315735  0.02753088  0.47226926  1
  O  O229  1  0.06335826  0.98294730  0.47225565  1
  O  O230  1  0.56806021  0.51347354  0.47150786  1
  O  O231  1  0.95516828  0.48090799  0.47233794  1
  O  O232  1  0.21762071  0.81096315  0.48243991  1
  O  O233  1  0.28074200  0.19157206  0.48094735  1
  O  O234  1  0.72077680  0.68711351  0.48211127  1
  O  O235  1  0.78076354  0.31058154  0.48044992  1
  O  O236  1  0.54060658  0.85683695  0.49805281  1
  O  O237  1  0.96138081  0.15037721  0.49300645  1
  O  O238  1  0.03656023  0.64825332  0.50635533  1
  O  O239  1  0.46235122  0.34633224  0.49262491  1
  O  O240  1  0.84533570  0.95342811  0.50459789  1
  O  O241  1  0.65465523  0.06523922  0.50178341  1
  O  O242  1  0.15124585  0.44065398  0.50273950  1
  O  O243  1  0.34917521  0.54021532  0.50230324  1
  O  O244  1  0.34396778  0.95168754  0.52291108  1
  O  O245  1  0.15050190  0.06820017  0.52860670  1
  O  O246  1  0.64766737  0.42682912  0.52722099  1
  O  O247  1  0.83988025  0.54247712  0.52272660  1
  O  O248  1  0.45881013  0.15483621  0.52802924  1
  O  O249  1  0.04608302  0.86552406  0.52583512  1
  O  O250  1  0.95761251  0.34039292  0.52793636  1
  O  O251  1  0.53621057  0.64069589  0.52260267  1
  O  O252  1  0.76073893  0.21311867  0.53860500  1
  O  O253  1  0.73911912  0.75937112  0.53922479  1
  O  O254  1  0.26293066  0.29540022  0.53726700  1
  O  O255  1  0.24025155  0.68343261  0.53538192  1
  O  O256  1  0.94052186  0.07473350  0.55163130  1
  O  O257  1  0.59065057  0.96443469  0.55096634  1
  O  O258  1  0.08034157  0.52075496  0.55372467  1
  O  O259  1  0.44219858  0.43358142  0.55148542  1
