# generated using pymatgen
data_Li18La8Zr5O31
_symmetry_space_group_name_H-M   'P 1'
_cell_length_a   12.70453900
_cell_length_b   13.20454200
_cell_length_c   47.21723981
_cell_angle_alpha   90.00000000
_cell_angle_beta   90.00000000
_cell_angle_gamma   90.00000000
_symmetry_Int_Tables_number   1
_chemical_formula_structural   Li18La8Zr5O31
_chemical_formula_sum   'Li72 La32 Zr20 O124'
_cell_volume   7921.05171677
_cell_formula_units_Z   4
loop_
 _symmetry_equiv_pos_site_id
 _symmetry_equiv_pos_as_xyz
  1  'x, y, z'
loop_
 _atom_site_type_symbol
 _atom_site_label
 _atom_site_symmetry_multiplicity
 _atom_site_fract_x
 _atom_site_fract_y
 _atom_site_fract_z
 _atom_site_occupancy
  Li  Li0  1  0.69124472  0.93222831  0.56248611  1
  Li  Li1  1  0.78875202  0.13194445  0.55998841  1
  Li  Li2  1  0.21476469  0.63279750  0.55870235  1
  Li  Li3  1  0.30461544  0.42812262  0.56367762  1
  Li  Li4  1  0.87003105  0.24873480  0.59180158  1
  Li  Li5  1  0.61697827  0.76086934  0.58998890  1
  Li  Li6  1  0.40847139  0.21651619  0.56799407  1
  Li  Li7  1  0.13382880  0.74814952  0.58889974  1
  Li  Li8  1  0.31661414  0.12219993  0.60882097  1
  Li  Li9  1  0.18115844  0.91266835  0.60962496  1
  Li  Li10  1  0.81014626  0.42211266  0.61314250  1
  Li  Li11  1  0.69218307  0.58112823  0.61065157  1
  Li  Li12  1  0.41105327  0.32482479  0.61224188  1
  Li  Li13  1  0.06342564  0.67337600  0.63348323  1
  Li  Li14  1  0.94683933  0.15614985  0.63716729  1
  Li  Li15  1  0.54239760  0.85205376  0.63754920  1
  Li  Li16  1  0.34909219  0.94348723  0.63642780  1
  Li  Li17  1  0.14346557  0.06835048  0.63457212  1
  Li  Li18  1  0.58028732  0.42153449  0.63808352  1
  Li  Li19  1  0.89977427  0.57427117  0.63482007  1
  Li  Li20  1  0.38769426  0.42559154  0.67256770  1
  Li  Li21  1  0.11532855  0.57637280  0.00358000  1
  Li  Li22  1  0.64928033  0.93981635  0.00516017  1
  Li  Li23  1  0.85105267  0.06490353  0.00600877  1
  Li  Li24  1  0.05750988  0.16628734  0.00811966  1
  Li  Li25  1  0.44519244  0.83562245  0.00897373  1
  Li  Li26  1  0.55729073  0.32845519  0.00965267  1
  Li  Li27  1  0.94352717  0.67628771  0.00804997  1
  Li  Li28  1  0.19896792  0.41752177  0.02816210  1
  Li  Li29  1  0.30658587  0.58503385  0.02983760  1
  Li  Li30  1  0.69139376  0.09077791  0.03545337  1
  Li  Li31  1  0.81269232  0.90697063  0.03274741  1
  Li  Li32  1  0.37582723  0.74994763  0.05385757  1
  Li  Li33  1  0.12761623  0.24998199  0.05386234  1
  Li  Li34  1  0.87753267  0.75003074  0.05385234  1
  Li  Li35  1  0.62676081  0.24993739  0.05385189  1
  Li  Li36  1  0.81270894  0.59312025  0.07494059  1
  Li  Li37  1  0.69134901  0.40911420  0.07221349  1
  Li  Li38  1  0.30665349  0.91495293  0.07784826  1
  Li  Li39  1  0.19898656  0.08252439  0.07955757  1
  Li  Li40  1  0.94354305  0.82373929  0.09967805  1
  Li  Li41  1  0.55725849  0.17147978  0.09808334  1
  Li  Li42  1  0.44526931  0.66429516  0.09877240  1
  Li  Li43  1  0.05749916  0.33375472  0.09958605  1
  Li  Li44  1  0.85087538  0.43516434  0.10168005  1
  Li  Li45  1  0.64932549  0.56005772  0.10255092  1
  Li  Li46  1  0.11546144  0.92360827  0.10411626  1
  Li  Li47  1  0.38758673  0.07439266  0.10880756  1
  Li  Li48  1  0.89973733  0.92570114  0.14655862  1
  Li  Li49  1  0.58032153  0.07845034  0.14328721  1
  Li  Li50  1  0.14316999  0.43165386  0.14681926  1
  Li  Li51  1  0.34900307  0.55649300  0.14491727  1
  Li  Li52  1  0.54243274  0.64786497  0.14380612  1
  Li  Li53  1  0.94681192  0.34385102  0.14415797  1
  Li  Li54  1  0.06341889  0.82660981  0.14785414  1
  Li  Li55  1  0.41102280  0.17522052  0.16911702  1
  Li  Li56  1  0.69217297  0.91883981  0.17069786  1
  Li  Li57  1  0.81018583  0.07792646  0.16821537  1
  Li  Li58  1  0.18113579  0.58743237  0.17171226  1
  Li  Li59  1  0.31655539  0.37792680  0.17255323  1
  Li  Li60  1  0.86998511  0.25132356  0.18954592  1
  Li  Li61  1  0.61700025  0.73906833  0.19135386  1
  Li  Li62  1  0.40845206  0.28351258  0.21336376  1
  Li  Li63  1  0.13384890  0.75196387  0.19244424  1
  Li  Li64  1  0.30462189  0.07194478  0.21765872  1
  Li  Li65  1  0.21484679  0.86722799  0.22267481  1
  Li  Li66  1  0.78873659  0.36805338  0.22138933  1
  Li  Li67  1  0.69125771  0.56774610  0.21889158  1
  Li  Li68  1  0.09403660  0.69985013  0.23616942  1
  Li  Li69  1  0.91068809  0.20625034  0.23427924  1
  Li  Li70  1  0.91068765  0.29372569  0.54707043  1
  Li  Li71  1  0.09402722  0.80023585  0.54515767  1
  La  La72  1  0.24990272  0.97305355  0.55402446  1
  La  La73  1  0.75174373  0.46363681  0.55449792  1
  La  La74  1  0.89011758  0.75603480  0.59117881  1
  La  La75  1  0.38391884  0.75763985  0.58913164  1
  La  La76  1  0.62594491  0.25307594  0.59300278  1
  La  La77  1  0.11069831  0.25304710  0.59177550  1
  La  La78  1  0.75290273  0.00340508  0.62091759  1
  La  La79  1  0.24860755  0.51332926  0.62134130  1
  La  La80  1  0.50232457  0.12244454  0.65778272  1
  La  La81  1  0.00346482  0.37973991  0.65652535  1
  La  La82  1  0.50015107  0.62467385  0.65586513  1
  La  La83  1  0.00159951  0.88662704  0.65694762  1
  La  La84  1  0.75251071  0.50277768  0.01593339  1
  La  La85  1  0.25085354  0.00254072  0.01932300  1
  La  La86  1  0.37641800  0.24999731  0.05386374  1
  La  La87  1  0.88096228  0.25000394  0.05385527  1
  La  La88  1  0.12511746  0.74999007  0.05384998  1
  La  La89  1  0.62533430  0.74998644  0.05385350  1
  La  La90  1  0.25085463  0.49747819  0.08839260  1
  La  La91  1  0.75251025  0.99723303  0.09177495  1
  La  La92  1  0.00160446  0.61338271  0.12437607  1
  La  La93  1  0.50016467  0.87532886  0.12546904  1
  La  La94  1  0.00346979  0.12021918  0.12480889  1
  La  La95  1  0.50231572  0.37755367  0.12356950  1
  La  La96  1  0.24858314  0.98665207  0.16000663  1
  La  La97  1  0.75291782  0.49661417  0.16043704  1
  La  La98  1  0.89010639  0.74392485  0.19016775  1
  La  La99  1  0.38395040  0.74237672  0.19221072  1
  La  La100  1  0.62594491  0.24695300  0.18835191  1
  La  La101  1  0.11063409  0.24694026  0.18957356  1
  La  La102  1  0.75173161  0.03635113  0.22685635  1
  La  La103  1  0.24990189  0.52702677  0.22733189  1
  Zr  Zr104  1  0.99176771  0.00298614  0.57990235  1
  Zr  Zr105  1  0.49944093  0.01312824  0.58448475  1
  Zr  Zr106  1  0.49982586  0.50736765  0.58192893  1
  Zr  Zr107  1  0.00901020  0.50125955  0.58075490  1
  Zr  Zr108  1  0.75313397  0.24875759  0.66001598  1
  Zr  Zr109  1  0.74934159  0.75321381  0.65688115  1
  Zr  Zr110  1  0.25415504  0.24721803  0.65730335  1
  Zr  Zr111  1  0.25188096  0.75480094  0.65830584  1
  Zr  Zr112  1  0.49973433  0.50055540  0.05236144  1
  Zr  Zr113  1  0.00205285  0.50051643  0.05299357  1
  Zr  Zr114  1  0.00206153  0.99948449  0.05470800  1
  Zr  Zr115  1  0.49974606  0.99943798  0.05533850  1
  Zr  Zr116  1  0.25190187  0.74520582  0.12302508  1
  Zr  Zr117  1  0.25414422  0.25284995  0.12405803  1
  Zr  Zr118  1  0.74932314  0.74674356  0.12445330  1
  Zr  Zr119  1  0.75310963  0.25125004  0.12132333  1
  Zr  Zr120  1  0.00900688  0.99872696  0.20060506  1
  Zr  Zr121  1  0.49984207  0.99262776  0.19941956  1
  Zr  Zr122  1  0.49945555  0.48686776  0.19688920  1
  Zr  Zr123  1  0.99180456  0.49702784  0.20145372  1
  O  O124  1  0.84347188  0.93282730  0.57508548  1
  O  O125  1  0.65327347  0.06890162  0.57514608  1
  O  O126  1  0.15722492  0.43072055  0.57731666  1
  O  O127  1  0.34661464  0.56834079  0.57452713  1
  O  O128  1  0.34582410  0.93803018  0.59592575  1
  O  O129  1  0.15259097  0.05867332  0.59210416  1
  O  O130  1  0.65169040  0.43809726  0.59880534  1
  O  O131  1  0.84636397  0.55936116  0.59345927  1
  O  O132  1  0.47003863  0.16104413  0.60462551  1
  O  O133  1  0.03806354  0.85040554  0.60186917  1
  O  O134  1  0.96436418  0.35364626  0.60383496  1
  O  O135  1  0.53555826  0.64964737  0.60382413  1
  O  O136  1  0.78403137  0.18984073  0.61875687  1
  O  O137  1  0.72719520  0.79936535  0.61410698  1
  O  O138  1  0.27406270  0.27003249  0.61270465  1
  O  O139  1  0.21882682  0.69755977  0.61711094  1
  O  O140  1  0.94626204  0.02130655  0.62516699  1
  O  O141  1  0.55925134  0.98633086  0.62717544  1
  O  O142  1  0.05162810  0.53158065  0.62655780  1
  O  O143  1  0.43655057  0.46954786  0.62722235  1
  O  O144  1  0.09319771  0.21143428  0.64182711  1
  O  O145  1  0.40379395  0.79332574  0.64251114  1
  O  O146  1  0.60204898  0.28045909  0.64457439  1
  O  O147  1  0.90845971  0.72014622  0.64088992  1
  O  O148  1  0.30347500  0.09429621  0.64890441  1
  O  O149  1  0.19634789  0.90585485  0.64905994  1
  O  O150  1  0.81508528  0.39713767  0.65164071  1
  O  O151  1  0.69593067  0.60472881  0.64994892  1
  O  O152  1  0.20149113  0.39917465  0.66139257  1
  O  O153  1  0.30648685  0.60480870  0.66412951  1
  O  O154  1  0.69940494  0.09696752  0.66814496  1
  O  O155  1  0.80407340  0.90596657  0.66505330  1
  O  O156  1  0.40255875  0.27743307  0.00076608  1
  O  O157  1  0.09740314  0.72088999  0.67289015  1
  O  O158  1  0.90518269  0.20817966  0.00146896  1
  O  O159  1  0.59956632  0.79280014  0.67247899  1
  O  O160  1  0.95464140  0.53250142  0.01025900  1
  O  O161  1  0.55020640  0.47256146  0.00896138  1
  O  O162  1  0.05729142  0.02473255  0.01265349  1
  O  O163  1  0.44546269  0.97690397  0.01337180  1
  O  O164  1  0.71787798  0.30883123  0.02654486  1
  O  O165  1  0.78836448  0.70009174  0.02424575  1
  O  O166  1  0.21422163  0.19335400  0.02434121  1
  O  O167  1  0.28510785  0.80853112  0.02561646  1
  O  O168  1  0.03837248  0.35347894  0.03754023  1
  O  O169  1  0.46809906  0.65015530  0.03753707  1
  O  O170  1  0.53630050  0.14685173  0.04096406  1
  O  O171  1  0.96656787  0.85232542  0.03886635  1
  O  O172  1  0.34666602  0.44454752  0.04251264  1
  O  O173  1  0.15593258  0.55718940  0.04296835  1
  O  O174  1  0.65556057  0.94384853  0.04647222  1
  O  O175  1  0.84801662  0.05152641  0.04639038  1
  O  O176  1  0.84800391  0.44851310  0.06130960  1
  O  O177  1  0.65554434  0.55614366  0.06122957  1
  O  O178  1  0.15597175  0.94281804  0.06471997  1
  O  O179  1  0.34670511  0.05548274  0.06520593  1
  O  O180  1  0.96653984  0.64768175  0.06883639  1
  O  O181  1  0.53626562  0.35308634  0.06670334  1
  O  O182  1  0.46810918  0.84980718  0.07015560  1
  O  O183  1  0.03839951  0.14647073  0.07019401  1
  O  O184  1  0.28513634  0.69137191  0.08209922  1
  O  O185  1  0.21422598  0.30663010  0.08338389  1
  O  O186  1  0.78834387  0.79986966  0.08346166  1
  O  O187  1  0.71787521  0.19115804  0.08117644  1
  O  O188  1  0.44552198  0.52303656  0.09434570  1
  O  O189  1  0.05735045  0.47532117  0.09504447  1
  O  O190  1  0.55025551  0.02738674  0.09873865  1
  O  O191  1  0.95466446  0.96749251  0.09744329  1
  O  O192  1  0.59955564  0.70712683  0.10886197  1
  O  O193  1  0.90514707  0.29189648  0.10624012  1
  O  O194  1  0.09741367  0.77910778  0.10843683  1
  O  O195  1  0.40254869  0.22258633  0.10695608  1
  O  O196  1  0.80411850  0.59397277  0.11628156  1
  O  O197  1  0.69932942  0.40301068  0.11317241  1
  O  O198  1  0.30645353  0.89521014  0.11718611  1
  O  O199  1  0.20150980  0.10084971  0.11996500  1
  O  O200  1  0.69592863  0.89522745  0.13139165  1
  O  O201  1  0.81507695  0.10285839  0.12970206  1
  O  O202  1  0.19635049  0.59418234  0.13227753  1
  O  O203  1  0.30347234  0.40574263  0.13244754  1
  O  O204  1  0.90842395  0.77983720  0.14045287  1
  O  O205  1  0.60203284  0.21952590  0.13677214  1
  O  O206  1  0.40381136  0.70669047  0.13884044  1
  O  O207  1  0.09315593  0.28856368  0.13952371  1
  O  O208  1  0.43653759  0.03043309  0.15411070  1
  O  O209  1  0.05159678  0.96840537  0.15479510  1
  O  O210  1  0.55937441  0.51359629  0.15419640  1
  O  O211  1  0.94645789  0.47868207  0.15619184  1
  O  O212  1  0.21884059  0.80245417  0.16421985  1
  O  O213  1  0.27402510  0.23005378  0.16865958  1
  O  O214  1  0.72717665  0.70052306  0.16722474  1
  O  O215  1  0.78398640  0.31020820  0.16258466  1
  O  O216  1  0.53562312  0.85035999  0.17752810  1
  O  O217  1  0.96429030  0.14634328  0.17752843  1
  O  O218  1  0.03809825  0.64968738  0.17948613  1
  O  O219  1  0.47002646  0.33896087  0.17674464  1
  O  O220  1  0.84635084  0.94058540  0.18790474  1
  O  O221  1  0.65170482  0.06189756  0.18254885  1
  O  O222  1  0.15260206  0.44138956  0.18926800  1
  O  O223  1  0.34586800  0.56197241  0.18542051  1
  O  O224  1  0.34661256  0.93167824  0.20680421  1
  O  O225  1  0.15721276  0.06931245  0.20402922  1
  O  O226  1  0.65328244  0.43109300  0.20623338  1
  O  O227  1  0.84348603  0.56718557  0.20626575  1
  O  O228  1  0.39660636  0.07810977  0.55437641  1
  O  O229  1  0.06973056  0.94321963  0.54600971  1
  O  O230  1  0.59472149  0.54026338  0.54919054  1
  O  O231  1  0.93456515  0.43835734  0.54703329  1
  O  O232  1  0.23860234  0.78873081  0.55842132  1
  O  O233  1  0.76539715  0.28595157  0.56027469  1
  O  O234  1  0.54479439  0.86813188  0.57235197  1
  O  O235  1  0.95327945  0.15348723  0.56887119  1
  O  O236  1  0.04752724  0.65136913  0.56874687  1
  O  O237  1  0.44642431  0.35988132  0.57263575  1
  O  O238  1  0.44641827  0.14011756  0.20870956  1
  O  O239  1  0.04755799  0.84865216  0.21262135  1
  O  O240  1  0.95326701  0.34653718  0.21248832  1
  O  O241  1  0.54481407  0.63185821  0.20901413  1
  O  O242  1  0.76539265  0.21404346  0.22107769  1
  O  O243  1  0.23864323  0.71134195  0.22292863  1
  O  O244  1  0.93455423  0.06160777  0.23432975  1
  O  O245  1  0.59468023  0.95974590  0.23216721  1
  O  O246  1  0.06974612  0.55685326  0.23534333  1
  O  O247  1  0.39659187  0.42193574  0.22699443  1
