# generated using pymatgen
data_Li40La18Zr10O67
_symmetry_space_group_name_H-M   'P 1'
_cell_length_a   11.29297700
_cell_length_b   11.29297737
_cell_length_c   57.75385955
_cell_angle_alpha   90.00000000
_cell_angle_beta   90.00000000
_cell_angle_gamma   111.54263211
_symmetry_Int_Tables_number   1
_chemical_formula_structural   Li40La18Zr10O67
_chemical_formula_sum   'Li80 La36 Zr20 O134'
_cell_volume   6850.91196068
_cell_formula_units_Z   2
loop_
 _symmetry_equiv_pos_site_id
 _symmetry_equiv_pos_as_xyz
  1  'x, y, z'
loop_
 _atom_site_type_symbol
 _atom_site_label
 _atom_site_symmetry_multiplicity
 _atom_site_fract_x
 _atom_site_fract_y
 _atom_site_fract_z
 _atom_site_occupancy
  Li  Li0  1  0.28806622  0.51007194  0.67868378  1
  Li  Li1  1  0.73513558  0.98753427  0.68355926  1
  Li  Li2  1  0.85461566  0.44169163  0.67486523  1
  Li  Li3  1  0.94367552  0.93781437  0.69183609  1
  Li  Li4  1  0.06884460  0.55382635  0.00011715  1
  Li  Li5  1  0.00526326  0.74978791  0.01184731  1
  Li  Li6  1  0.37212668  0.53109354  0.02617126  1
  Li  Li7  1  0.14313599  0.97792901  0.02743842  1
  Li  Li8  1  0.62423059  0.97078850  0.02995730  1
  Li  Li9  1  0.85996450  0.52410448  0.02729719  1
  Li  Li10  1  0.49002353  0.73848180  0.04817993  1
  Li  Li11  1  0.56417904  0.54795345  0.05272753  1
  Li  Li12  1  0.43790217  0.94956317  0.05552375  1
  Li  Li13  1  0.32892242  0.44084488  0.06563974  1
  Li  Li14  1  0.24765727  0.00325275  0.06684213  1
  Li  Li15  1  0.75119325  0.50224371  0.06743445  1
  Li  Li16  1  0.70103564  0.09057433  0.06860004  1
  Li  Li17  1  0.19273627  0.20051784  0.07933735  1
  Li  Li18  1  0.79859388  0.31704271  0.08126382  1
  Li  Li19  1  0.97794978  0.23727295  0.09119420  1
  Li  Li20  1  0.77472644  0.60886983  0.10584323  1
  Li  Li21  1  0.21959179  0.38863628  0.10810348  1
  Li  Li22  1  0.22005197  0.88929602  0.10772994  1
  Li  Li23  1  0.77313164  0.10803685  0.11080308  1
  Li  Li24  1  0.98372532  0.73910967  0.12656131  1
  Li  Li25  1  0.80228783  0.81637103  0.13513701  1
  Li  Li26  1  0.19501083  0.69761372  0.13579203  1
  Li  Li27  1  0.69483537  0.58514160  0.14781606  1
  Li  Li28  1  0.74930613  0.00073635  0.14878844  1
  Li  Li29  1  0.24913920  0.50071550  0.14857382  1
  Li  Li30  1  0.33333333  0.94601108  0.14893882  1
  Li  Li31  1  0.44515589  0.44682076  0.16149173  1
  Li  Li32  1  0.56302557  0.05296976  0.16210329  1
  Li  Li33  1  0.48580078  0.23507479  0.17124122  1
  Li  Li34  1  0.85743990  0.02571979  0.18734103  1
  Li  Li35  1  0.63697405  0.47107580  0.18926079  1
  Li  Li36  1  0.13696827  0.47106917  0.18910612  1
  Li  Li37  1  0.35743668  0.02572182  0.19102483  1
  Li  Li38  1  0.98579488  0.23506547  0.20712495  1
  Li  Li39  1  0.06303541  0.05297073  0.21626419  1
  Li  Li40  1  0.94515879  0.44682078  0.21687437  1
  Li  Li41  1  0.83334268  0.94602069  0.22942725  1
  Li  Li42  1  0.74914423  0.50071421  0.22979282  1
  Li  Li43  1  0.24930843  0.00073376  0.22957749  1
  Li  Li44  1  0.19483490  0.58514766  0.23054936  1
  Li  Li45  1  0.69501286  0.69761605  0.24257327  1
  Li  Li46  1  0.30229395  0.81637418  0.24322897  1
  Li  Li47  1  0.48372328  0.73910152  0.25180465  1
  Li  Li48  1  0.27313429  0.10803864  0.26756188  1
  Li  Li49  1  0.72005549  0.88929447  0.27063533  1
  Li  Li50  1  0.71959978  0.38863412  0.27026409  1
  Li  Li51  1  0.27473207  0.60887317  0.27252242  1
  Li  Li52  1  0.47794748  0.23726781  0.28717257  1
  Li  Li53  1  0.29860001  0.31704789  0.29710387  1
  Li  Li54  1  0.69274424  0.20051799  0.29902925  1
  Li  Li55  1  0.20104991  0.09058053  0.30976596  1
  Li  Li56  1  0.25119994  0.50224743  0.31093098  1
  Li  Li57  1  0.74766208  0.00325236  0.31152424  1
  Li  Li58  1  0.82893012  0.44084346  0.31272736  1
  Li  Li59  1  0.93790667  0.94956171  0.32284235  1
  Li  Li60  1  0.06418701  0.54795356  0.32563856  1
  Li  Li61  1  0.99002146  0.73847455  0.33018471  1
  Li  Li62  1  0.35997289  0.52410100  0.35106752  1
  Li  Li63  1  0.12423615  0.97078614  0.34840682  1
  Li  Li64  1  0.64313794  0.97792647  0.35092756  1
  Li  Li65  1  0.87214279  0.53109856  0.35219566  1
  Li  Li66  1  0.50526989  0.74978527  0.36651794  1
  Li  Li67  1  0.56884843  0.55381887  0.37824836  1
  Li  Li68  1  0.44367795  0.93781105  0.37931548  1
  Li  Li69  1  0.35461771  0.44168718  0.39628700  1
  Li  Li70  1  0.23513514  0.98753257  0.38759254  1
  Li  Li71  1  0.78806437  0.51006858  0.39246665  1
  Li  Li72  1  0.65237285  0.02320938  0.39411623  1
  Li  Li73  1  0.18531802  0.15943995  0.40179905  1
  Li  Li74  1  0.85071504  0.18962046  0.41337975  1
  Li  Li75  1  0.25986656  0.35994595  0.42945985  1
  Li  Li76  1  0.75987423  0.35994947  0.64169148  1
  Li  Li77  1  0.35071710  0.18962934  0.65777247  1
  Li  Li78  1  0.68531885  0.15943845  0.66935255  1
  Li  Li79  1  0.15237104  0.02321492  0.67703582  1
  La  La80  1  0.82980824  0.68779185  0.66263543  1
  La  La81  1  0.17956272  0.80038604  0.66230324  1
  La  La82  1  0.50762672  0.75709255  0.68461947  1
  La  La83  1  0.98570267  0.25324480  0.68254647  1
  La  La84  1  0.57009936  0.43767232  0.69110423  1
  La  La85  1  0.43068084  0.05859917  0.00330439  1
  La  La86  1  0.94021210  0.06599016  0.04760495  1
  La  La87  1  0.05983646  0.43447724  0.04910919  1
  La  La88  1  0.00059235  0.75136785  0.06862691  1
  La  La89  1  0.49545552  0.25167088  0.06584177  1
  La  La90  1  0.68592834  0.81809969  0.08751484  1
  La  La91  1  0.31173874  0.68410048  0.08873264  1
  La  La92  1  0.31199068  0.18888823  0.12804430  1
  La  La93  1  0.68250190  0.31465702  0.12921347  1
  La  La94  1  0.99909804  0.25167374  0.14894959  1
  La  La95  1  0.49920614  0.75048913  0.14858784  1
  La  La96  1  0.06476344  0.93661304  0.16812674  1
  La  La97  1  0.93548937  0.56344887  0.16912704  1
  La  La98  1  0.43548978  0.56344907  0.20923891  1
  La  La99  1  0.56476261  0.93661391  0.21024020  1
  La  La100  1  0.49909807  0.25167364  0.22941729  1
  La  La101  1  0.99920587  0.75049273  0.22977781  1
  La  La102  1  0.18250442  0.31466123  0.24915317  1
  La  La103  1  0.81199455  0.18889241  0.25032230  1
  La  La104  1  0.81174334  0.68410005  0.28963282  1
  La  La105  1  0.18593567  0.81810489  0.29085082  1
  La  La106  1  0.50059723  0.75136513  0.30973882  1
  La  La107  1  0.99546033  0.25167002  0.31252481  1
  La  La108  1  0.55984421  0.43447595  0.32925718  1
  La  La109  1  0.44021723  0.06599065  0.33076205  1
  La  La110  1  0.93068242  0.05859395  0.37506199  1
  La  La111  1  0.07010143  0.43766889  0.38004663  1
  La  La112  1  0.00763257  0.75709149  0.38653212  1
  La  La113  1  0.48569816  0.25324037  0.38860602  1
  La  La114  1  0.67956526  0.80037942  0.40884863  1
  La  La115  1  0.32981194  0.68778535  0.40851464  1
  Zr  Zr116  1  0.75467412  0.75328541  0.02847266  1
  Zr  Zr117  1  0.25502330  0.25502660  0.02295023  1
  Zr  Zr118  1  0.74138225  0.25109986  0.02726028  1
  Zr  Zr119  1  0.24858770  0.74586193  0.02888958  1
  Zr  Zr120  1  0.00083643  0.00331469  0.10811321  1
  Zr  Zr121  1  0.49969513  0.50054119  0.10724852  1
  Zr  Zr122  1  0.49922417  0.00142885  0.10772998  1
  Zr  Zr123  1  0.99774443  0.50059103  0.10895132  1
  Zr  Zr124  1  0.24877959  0.25069041  0.18894838  1
  Zr  Zr125  1  0.74961085  0.75076793  0.18911274  1
  Zr  Zr126  1  0.24961433  0.75076967  0.18925319  1
  Zr  Zr127  1  0.74878056  0.25069358  0.18941804  1
  Zr  Zr128  1  0.49775042  0.50058922  0.26941499  1
  Zr  Zr129  1  0.99922699  0.00143229  0.27063664  1
  Zr  Zr130  1  0.99970452  0.50054823  0.27111803  1
  Zr  Zr131  1  0.50084249  0.00331704  0.27025349  1
  Zr  Zr132  1  0.74858969  0.74585904  0.34947563  1
  Zr  Zr133  1  0.24138671  0.25109745  0.35110664  1
  Zr  Zr134  1  0.75502871  0.25502526  0.35541627  1
  Zr  Zr135  1  0.25468220  0.75328604  0.34989236  1
  O  O136  1  0.74903817  0.83168301  0.68700078  1
  O  O137  1  0.26778941  0.67079411  0.68714430  1
  O  O138  1  0.37023660  0.25383973  0.68735876  1
  O  O139  1  0.62458627  0.24502936  0.69191944  1
  O  O140  1  0.19993696  0.87484189  0.00817748  1
  O  O141  1  0.79689151  0.61931604  0.00808149  1
  O  O142  1  0.08752492  0.10629544  0.00817629  1
  O  O143  1  0.18306860  0.39077709  0.00782705  1
  O  O144  1  0.82015426  0.11668573  0.01195363  1
  O  O145  1  0.91364434  0.39177381  0.01239013  1
  O  O146  1  0.55792971  0.65149196  0.02552494  1
  O  O147  1  0.44400284  0.85573235  0.02659171  1
  O  O148  1  0.95420997  0.86461661  0.03141801  1
  O  O149  1  0.05054291  0.63434358  0.03186120  1
  O  O150  1  0.41401180  0.39186628  0.03965002  1
  O  O151  1  0.31007175  0.11439721  0.03958012  1
  O  O152  1  0.68822450  0.38931968  0.04224691  1
  O  O153  1  0.58533394  0.11003251  0.04343157  1
  O  O154  1  0.28532889  0.60064784  0.04772542  1
  O  O155  1  0.72264538  0.90069134  0.04765888  1
  O  O156  1  0.13331233  0.25939775  0.05226074  1
  O  O157  1  0.86240820  0.24153252  0.05660250  1
  O  O158  1  0.76549093  0.67288310  0.06079899  1
  O  O159  1  0.23481039  0.82878252  0.06085956  1
  O  O160  1  0.08083315  0.99296142  0.07540680  1
  O  O161  1  0.91675875  0.51260624  0.07637806  1
  O  O162  1  0.49157979  0.61393846  0.07830274  1
  O  O163  1  0.50275707  0.87780955  0.07999134  1
  O  O164  1  0.13927258  0.46720036  0.08849136  1
  O  O165  1  0.85812651  0.04220033  0.08847846  1
  O  O166  1  0.35423994  0.33814599  0.09218830  1
  O  O167  1  0.63480816  0.43323319  0.09254668  1
  O  O168  1  0.36688148  0.06828865  0.09176762  1
  O  O169  1  0.64405182  0.16539782  0.09457519  1
  O  O170  1  0.89087541  0.80494093  0.10470768  1
  O  O171  1  0.10591866  0.70019037  0.10559524  1
  O  O172  1  0.10643566  0.20256109  0.11094589  1
  O  O173  1  0.88748560  0.30314632  0.11262392  1
  O  O174  1  0.64208500  0.66573450  0.12191183  1
  O  O175  1  0.36375996  0.56781162  0.12273565  1
  O  O176  1  0.63592133  0.93419700  0.12316136  1
  O  O177  1  0.35551118  0.83739934  0.12319615  1
  O  O178  1  0.85488770  0.53984769  0.12842926  1
  O  O179  1  0.14519509  0.97210066  0.12815163  1
  O  O180  1  0.50317347  0.38110409  0.13583289  1
  O  O181  1  0.48747601  0.11252641  0.13719686  1
  O  O182  1  0.91859321  0.01365365  0.14094614  1
  O  O183  1  0.07821969  0.48895709  0.14169378  1
  O  O184  1  0.23589696  0.32999726  0.15608199  1
  O  O185  1  0.75945077  0.16837482  0.15667204  1
  O  O186  1  0.86270566  0.74200795  0.15982592  1
  O  O187  1  0.12953771  0.75666805  0.16115176  1
  O  O188  1  0.71784689  0.39412112  0.16915908  1
  O  O189  1  0.28788744  0.10857563  0.16910693  1
  O  O190  1  0.58676979  0.60713512  0.17390247  1
  O  O191  1  0.68328044  0.88699053  0.17406116  1
  O  O192  1  0.31751209  0.61610304  0.17410123  1
  O  O193  1  0.41459687  0.89365941  0.17499159  1
  O  O194  1  0.05074329  0.14038732  0.18554548  1
  O  O195  1  0.94839494  0.35781819  0.18632700  1
  O  O196  1  0.44839458  0.35781857  0.19204046  1
  O  O197  1  0.55074318  0.14038892  0.19282080  1
  O  O198  1  0.91459678  0.89365724  0.20337501  1
  O  O199  1  0.81750724  0.61610089  0.20426464  1
  O  O200  1  0.18328118  0.88699436  0.20430378  1
  O  O201  1  0.08676984  0.60713639  0.20446323  1
  O  O202  1  0.78788810  0.10857284  0.20925891  1
  O  O203  1  0.21785164  0.39412378  0.20920802  1
  O  O204  1  0.62953318  0.75666766  0.21721393  1
  O  O205  1  0.36270444  0.74200639  0.21854026  1
  O  O206  1  0.25944811  0.16837144  0.22169461  1
  O  O207  1  0.73590156  0.32999515  0.22228530  1
  O  O208  1  0.57822659  0.48895845  0.23667225  1
  O  O209  1  0.41859598  0.01365479  0.23742123  1
  O  O210  1  0.98748029  0.11253007  0.24116965  1
  O  O211  1  0.00317787  0.38110988  0.24253392  1
  O  O212  1  0.64519959  0.97210376  0.25021489  1
  O  O213  1  0.35489716  0.53985134  0.24993663  1
  O  O214  1  0.85551468  0.83740070  0.25516977  1
  O  O215  1  0.13592117  0.93419663  0.25520439  1
  O  O216  1  0.86376918  0.56781845  0.25563040  1
  O  O217  1  0.14209383  0.66573971  0.25645476  1
  O  O218  1  0.38749250  0.30314656  0.26574169  1
  O  O219  1  0.60644262  0.20256167  0.26742187  1
  O  O220  1  0.60592297  0.70019047  0.27277069  1
  O  O221  1  0.39088248  0.80494140  0.27365911  1
  O  O222  1  0.14405652  0.16539910  0.28379150  1
  O  O223  1  0.86688537  0.06828938  0.28659859  1
  O  O224  1  0.13481730  0.43324298  0.28581929  1
  O  O225  1  0.85424949  0.33815076  0.28617882  1
  O  O226  1  0.35813028  0.04220316  0.28988746  1
  O  O227  1  0.63928374  0.46720733  0.28987463  1
  O  O228  1  0.00275966  0.87780965  0.29837511  1
  O  O229  1  0.99158820  0.61394450  0.30006365  1
  O  O230  1  0.41676399  0.51260529  0.30198814  1
  O  O231  1  0.58083643  0.99296136  0.30296090  1
  O  O232  1  0.73481661  0.82878106  0.31750664  1
  O  O233  1  0.26549665  0.67288429  0.31756658  1
  O  O234  1  0.36241572  0.24153195  0.32176392  1
  O  O235  1  0.63332369  0.25940004  0.32610612  1
  O  O236  1  0.22265816  0.90069696  0.33070630  1
  O  O237  1  0.78534073  0.60064613  0.33064152  1
  O  O238  1  0.08533802  0.11003081  0.33493408  1
  O  O239  1  0.18822885  0.38931781  0.33611754  1
  O  O240  1  0.81007611  0.11439990  0.33878637  1
  O  O241  1  0.91402282  0.39186669  0.33871751  1
  O  O242  1  0.55055010  0.63434134  0.34650500  1
  O  O243  1  0.45421492  0.86461554  0.34694836  1
  O  O244  1  0.94401117  0.85573187  0.35177417  1
  O  O245  1  0.05793717  0.65149330  0.35284055  1
  O  O246  1  0.41364475  0.39176786  0.36597577  1
  O  O247  1  0.32015314  0.11668421  0.36641263  1
  O  O248  1  0.68306655  0.39077340  0.37053899  1
  O  O249  1  0.58752807  0.10629385  0.37018971  1
  O  O250  1  0.29689559  0.61931154  0.37028219  1
  O  O251  1  0.69994601  0.87484135  0.37018759  1
  O  O252  1  0.12458372  0.24503118  0.37923209  1
  O  O253  1  0.87023686  0.25383532  0.38379400  1
  O  O254  1  0.76779545  0.67079500  0.38400821  1
  O  O255  1  0.24904408  0.83168305  0.38415043  1
  O  O256  1  0.07201768  0.97909097  0.39463870  1
  O  O257  1  0.96301739  0.55285082  0.39826621  1
  O  O258  1  0.49707943  0.61607087  0.40368304  1
  O  O259  1  0.51393408  0.87243071  0.40468499  1
  O  O260  1  0.21006074  0.47392984  0.41319976  1
  O  O261  1  0.80343803  0.01884927  0.41035516  1
  O  O262  1  0.34724616  0.27275653  0.41434927  1
  O  O263  1  0.84724725  0.27275514  0.65680189  1
  O  O264  1  0.30343864  0.01885663  0.66079687  1
  O  O265  1  0.71006321  0.47393028  0.65795224  1
  O  O266  1  0.01392955  0.87243725  0.66646568  1
  O  O267  1  0.99707760  0.61607856  0.66746786  1
  O  O268  1  0.46302131  0.55285737  0.67288258  1
  O  O269  1  0.57201703  0.97909193  0.67651439  1
