# generated using pymatgen
data_Li40La18Zr10O67
_symmetry_space_group_name_H-M   'P 1'
_cell_length_a   11.29297700
_cell_length_b   11.29297737
_cell_length_c   56.41288744
_cell_angle_alpha   90.00000000
_cell_angle_beta   90.00000000
_cell_angle_gamma   111.54263211
_symmetry_Int_Tables_number   1
_chemical_formula_structural   Li40La18Zr10O67
_chemical_formula_sum   'Li80 La36 Zr20 O134'
_cell_volume   6691.84238628
_cell_formula_units_Z   2
loop_
 _symmetry_equiv_pos_site_id
 _symmetry_equiv_pos_as_xyz
  1  'x, y, z'
loop_
 _atom_site_type_symbol
 _atom_site_label
 _atom_site_symmetry_multiplicity
 _atom_site_fract_x
 _atom_site_fract_y
 _atom_site_fract_z
 _atom_site_occupancy
  Li  Li0  1  0.28806369  0.21166693  0.20343335  1
  Li  Li1  1  0.39160976  0.45417841  0.19327025  1
  Li  Li2  1  0.66011141  0.14106016  0.20157454  1
  Li  Li3  1  0.14264592  0.00926883  0.22331294  1
  Li  Li4  1  0.24183436  0.49543174  0.22091734  1
  Li  Li5  1  0.74967141  0.01908734  0.21890511  1
  Li  Li6  1  0.81005257  0.33958038  0.21258661  1
  Li  Li7  1  0.92802161  0.95225284  0.23537880  1
  Li  Li8  1  0.01095387  0.55373972  0.22998097  1
  Li  Li9  1  0.00621614  0.76958315  0.24571705  1
  Li  Li10  1  0.36567278  0.52941623  0.26432525  1
  Li  Li11  1  0.14958463  0.97557850  0.26611056  1
  Li  Li12  1  0.63772436  0.97512545  0.25934987  1
  Li  Li13  1  0.85567853  0.52161879  0.26029738  1
  Li  Li14  1  0.50595620  0.76421196  0.28169073  1
  Li  Li15  1  0.55847291  0.55494356  0.29046433  1
  Li  Li16  1  0.43047309  0.95114733  0.28695666  1
  Li  Li17  1  0.30075767  0.41208942  0.30372172  1
  Li  Li18  1  0.25189358  0.00013100  0.30393993  1
  Li  Li19  1  0.75199081  0.49904909  0.30149534  1
  Li  Li20  1  0.65734380  0.05186123  0.30134657  1
  Li  Li21  1  0.19909347  0.18446935  0.31652640  1
  Li  Li22  1  0.80366134  0.30544646  0.31573321  1
  Li  Li23  1  0.01798687  0.26605131  0.32619035  1
  Li  Li24  1  0.77506884  0.60575230  0.34159536  1
  Li  Li25  1  0.22508723  0.39535856  0.34667089  1
  Li  Li26  1  0.21866314  0.88705637  0.34509859  1
  Li  Li27  1  0.77992761  0.11601474  0.34367228  1
  Li  Li28  1  0.98367230  0.73598426  0.36305083  1
  Li  Li29  1  0.80388027  0.81227972  0.37253869  1
  Li  Li30  1  0.19748281  0.69368120  0.37228062  1
  Li  Li31  1  0.68986279  0.57639773  0.38515355  1
  Li  Li32  1  0.75023257  0.00107751  0.38501390  1
  Li  Li33  1  0.25055270  0.50084077  0.38635999  1
  Li  Li34  1  0.33237512  0.94219586  0.38652380  1
  Li  Li35  1  0.44590487  0.44609869  0.39935229  1
  Li  Li36  1  0.56454761  0.05239869  0.39974500  1
  Li  Li37  1  0.48947145  0.23454825  0.40923491  1
  Li  Li38  1  0.85933530  0.02438766  0.42473847  1
  Li  Li39  1  0.63977537  0.46945717  0.42725232  1
  Li  Li40  1  0.13977537  0.46945717  0.42749409  1
  Li  Li41  1  0.35933530  0.02438766  0.43000865  1
  Li  Li42  1  0.98947145  0.23454825  0.44551221  1
  Li  Li43  1  0.06454761  0.05239869  0.45500212  1
  Li  Li44  1  0.94590487  0.44609869  0.45539412  1
  Li  Li45  1  0.83237512  0.94219586  0.46822332  1
  Li  Li46  1  0.75055270  0.50084077  0.46838713  1
  Li  Li47  1  0.25023257  0.00107751  0.46973322  1
  Li  Li48  1  0.18986279  0.57639773  0.46959357  1
  Li  Li49  1  0.69748281  0.69368120  0.48246650  1
  Li  Li50  1  0.30388027  0.81227972  0.48220843  1
  Li  Li51  1  0.48367230  0.73598426  0.49169629  1
  Li  Li52  1  0.27992761  0.11601474  0.51107413  1
  Li  Li53  1  0.71866314  0.88705637  0.50964853  1
  Li  Li54  1  0.72508723  0.39535856  0.50807622  1
  Li  Li55  1  0.27506884  0.60575230  0.51315105  1
  Li  Li56  1  0.51798687  0.26605131  0.52855677  1
  Li  Li57  1  0.30366134  0.30544646  0.53901391  1
  Li  Li58  1  0.69909347  0.18446935  0.53822072  1
  Li  Li59  1  0.15734380  0.05186123  0.55340055  1
  Li  Li60  1  0.25198981  0.49904909  0.55325178  1
  Li  Li61  1  0.75189358  0.00013100  0.55080719  1
  Li  Li62  1  0.80075767  0.41208942  0.55102469  1
  Li  Li63  1  0.93047309  0.95114733  0.56778975  1
  Li  Li64  1  0.05847291  0.55494356  0.56428279  1
  Li  Li65  1  0.00595620  0.76421196  0.57305639  1
  Li  Li66  1  0.35567853  0.52161879  0.59444974  1
  Li  Li67  1  0.13772436  0.97512545  0.59539654  1
  Li  Li68  1  0.64958463  0.97557850  0.58863585  1
  Li  Li69  1  0.86567278  0.52941623  0.59042187  1
  Li  Li70  1  0.50621614  0.76958315  0.60903007  1
  Li  Li71  1  0.51095387  0.55373972  0.62476615  1
  Li  Li72  1  0.42802161  0.95225284  0.61936832  1
  Li  Li73  1  0.31005257  0.33958038  0.64216051  1
  Li  Li74  1  0.24967141  0.01908734  0.63584200  1
  Li  Li75  1  0.74183536  0.49543174  0.63382977  1
  Li  Li76  1  0.64264592  0.00926883  0.63143418  1
  Li  Li77  1  0.16011141  0.14106016  0.65317258  1
  Li  Li78  1  0.89160976  0.45417841  0.66147687  1
  Li  Li79  1  0.78806369  0.21166693  0.65131377  1
  La  La80  1  0.81789004  0.70330639  0.20394177  1
  La  La81  1  0.16927553  0.80855437  0.20132213  1
  La  La82  1  0.50993045  0.75859486  0.22342295  1
  La  La83  1  0.02286831  0.25385588  0.21844939  1
  La  La84  1  0.57064176  0.43735391  0.24019210  1
  La  La85  1  0.42988147  0.06507668  0.23456990  1
  La  La86  1  0.93681721  0.07204424  0.28350764  1
  La  La87  1  0.06398978  0.43794779  0.28106231  1
  La  La88  1  0.99948472  0.75200106  0.30384146  1
  La  La89  1  0.50288570  0.25030600  0.30164944  1
  La  La90  1  0.68584129  0.81727392  0.32443244  1
  La  La91  1  0.31324568  0.68612708  0.32318917  1
  La  La92  1  0.31534948  0.18869819  0.36542618  1
  La  La93  1  0.68696362  0.31424612  0.36570280  1
  La  La94  1  0.00154972  0.24996648  0.38590909  1
  La  La95  1  0.50026479  0.74919145  0.38591624  1
  La  La96  1  0.06717636  0.93508780  0.40598002  1
  La  La97  1  0.93895729  0.56247250  0.40640218  1
  La  La98  1  0.43895729  0.56247250  0.44834494  1
  La  La99  1  0.56717636  0.93508780  0.44876710  1
  La  La100  1  0.50154972  0.24996648  0.46883803  1
  La  La101  1  0.00026479  0.74919145  0.46883088  1
  La  La102  1  0.18696362  0.31424612  0.48904361  1
  La  La103  1  0.81534948  0.18869819  0.48932023  1
  La  La104  1  0.81324568  0.68612708  0.53155724  1
  La  La105  1  0.18584129  0.81727392  0.53031397  1
  La  La106  1  0.49948472  0.75200106  0.55090566  1
  La  La107  1  0.00288570  0.25030600  0.55309768  1
  La  La108  1  0.56398978  0.43794779  0.57368481  1
  La  La109  1  0.43681721  0.07204424  0.57123947  1
  La  La110  1  0.92988147  0.06507668  0.62017722  1
  La  La111  1  0.07064176  0.43735391  0.61455502  1
  La  La112  1  0.00993045  0.75859486  0.63132417  1
  La  La113  1  0.52286831  0.25385588  0.63629773  1
  La  La114  1  0.66927553  0.80855437  0.65342428  1
  La  La115  1  0.31789104  0.70330639  0.65080464  1
  Zr  Zr116  1  0.74924480  0.75582718  0.26366532  1
  Zr  Zr117  1  0.25690370  0.25444871  0.26092890  1
  Zr  Zr118  1  0.75179559  0.24418498  0.25888064  1
  Zr  Zr119  1  0.24566277  0.74487341  0.26079320  1
  Zr  Zr120  1  0.00144620  0.00180710  0.34479754  1
  Zr  Zr121  1  0.50005812  0.50076372  0.34399114  1
  Zr  Zr122  1  0.49857617  0.00160413  0.34404684  1
  Zr  Zr123  1  0.99960685  0.50006316  0.34411139  1
  Zr  Zr124  1  0.25202028  0.25013948  0.42738687  1
  Zr  Zr125  1  0.75191700  0.74915278  0.42711405  1
  Zr  Zr126  1  0.25191700  0.74915278  0.42763307  1
  Zr  Zr127  1  0.75202028  0.25013948  0.42735954  1
  Zr  Zr128  1  0.49960685  0.50006316  0.51063573  1
  Zr  Zr129  1  0.99857617  0.00160413  0.51070028  1
  Zr  Zr130  1  0.00005812  0.50076372  0.51075598  1
  Zr  Zr131  1  0.50144620  0.00180710  0.50994958  1
  Zr  Zr132  1  0.74566277  0.74487341  0.59395391  1
  Zr  Zr133  1  0.25179559  0.24418498  0.59586648  1
  Zr  Zr134  1  0.75690370  0.25444871  0.59381821  1
  Zr  Zr135  1  0.24924480  0.75582718  0.59108109  1
  O  O136  1  0.54515262  0.56932147  0.20720854  1
  O  O137  1  0.56236949  0.97471950  0.21434183  1
  O  O138  1  0.74174137  0.84085427  0.22899426  1
  O  O139  1  0.27146373  0.67748354  0.22457216  1
  O  O140  1  0.38267848  0.26218442  0.23283504  1
  O  O141  1  0.64413082  0.26145485  0.22774325  1
  O  O142  1  0.19568363  0.88016661  0.24174784  1
  O  O143  1  0.79073506  0.61993193  0.24111387  1
  O  O144  1  0.09436167  0.11312076  0.24477722  1
  O  O145  1  0.19714990  0.40227374  0.24949268  1
  O  O146  1  0.81754942  0.09966013  0.24908930  1
  O  O147  1  0.91525880  0.38587853  0.24168020  1
  O  O148  1  0.55059524  0.64527765  0.25923570  1
  O  O149  1  0.44201636  0.85559869  0.25822319  1
  O  O150  1  0.94657082  0.86735282  0.26704099  1
  O  O151  1  0.04522691  0.63431632  0.26280738  1
  O  O152  1  0.42083097  0.39457398  0.27755823  1
  O  O153  1  0.31470018  0.11461732  0.27712815  1
  O  O154  1  0.69179983  0.38822458  0.27429886  1
  O  O155  1  0.58465582  0.11089176  0.27443832  1
  O  O156  1  0.28121384  0.61032417  0.28282140  1
  O  O157  1  0.70447370  0.89211901  0.28306311  1
  O  O158  1  0.13807085  0.25872111  0.29124590  1
  O  O159  1  0.87142214  0.25365647  0.28897942  1
  O  O160  1  0.76052324  0.67018753  0.29570646  1
  O  O161  1  0.23029067  0.83182985  0.29327235  1
  O  O162  1  0.08526711  0.98974297  0.31191829  1
  O  O163  1  0.91984816  0.51817069  0.31116207  1
  O  O164  1  0.49421239  0.62394482  0.31551975  1
  O  O165  1  0.50235550  0.88935956  0.31391461  1
  O  O166  1  0.14166939  0.46225269  0.32379199  1
  O  O167  1  0.85940539  0.03541352  0.32384637  1
  O  O168  1  0.35538501  0.33681301  0.33003698  1
  O  O169  1  0.63424539  0.43548151  0.32752628  1
  O  O170  1  0.36506540  0.07168494  0.32931468  1
  O  O171  1  0.64299065  0.16343377  0.32847506  1
  O  O172  1  0.89135340  0.80252309  0.34094390  1
  O  O173  1  0.10862063  0.70023678  0.34124479  1
  O  O174  1  0.10956778  0.20053350  0.34851400  1
  O  O175  1  0.89135366  0.30206596  0.34724411  1
  O  O176  1  0.64378851  0.66543941  0.35919920  1
  O  O177  1  0.36360738  0.56728197  0.35977702  1
  O  O178  1  0.63494394  0.93282079  0.35911269  1
  O  O179  1  0.35716239  0.83793149  0.35952568  1
  O  O180  1  0.85701550  0.53715535  0.36458583  1
  O  O181  1  0.14593287  0.97081769  0.36560155  1
  O  O182  1  0.51127326  0.38536686  0.37321993  1
  O  O183  1  0.49360171  0.11536443  0.37422980  1
  O  O184  1  0.91950503  0.01089783  0.37839201  1
  O  O185  1  0.08031174  0.48673394  0.37786704  1
  O  O186  1  0.24035238  0.33121257  0.39388586  1
  O  O187  1  0.76315460  0.16946936  0.39365077  1
  O  O188  1  0.86715353  0.74003070  0.39739020  1
  O  O189  1  0.13471167  0.75588393  0.39852925  1
  O  O190  1  0.72133258  0.39386167  0.40648094  1
  O  O191  1  0.29164917  0.10806091  0.40733332  1
  O  O192  1  0.58819129  0.60580064  0.41202163  1
  O  O193  1  0.68553520  0.88522608  0.41136645  1
  O  O194  1  0.31957658  0.61458861  0.41222237  1
  O  O195  1  0.41662918  0.89271818  0.41288640  1
  O  O196  1  0.05443717  0.13983181  0.42358781  1
  O  O197  1  0.95181979  0.35704393  0.42418027  1
  O  O198  1  0.45181979  0.35704393  0.43056685  1
  O  O199  1  0.55443717  0.13983181  0.43115931  1
  O  O200  1  0.91662918  0.89271818  0.44186072  1
  O  O201  1  0.81957658  0.61458861  0.44252475  1
  O  O202  1  0.18553520  0.88522608  0.44338067  1
  O  O203  1  0.08819129  0.60580064  0.44272549  1
  O  O204  1  0.79164917  0.10806091  0.44741380  1
  O  O205  1  0.22133258  0.39386167  0.44826547  1
  O  O206  1  0.63471167  0.75588393  0.45621716  1
  O  O207  1  0.36715353  0.74003070  0.45735621  1
  O  O208  1  0.26315460  0.16946936  0.46109635  1
  O  O209  1  0.74035238  0.33121257  0.46086055  1
  O  O210  1  0.58031174  0.48673394  0.47688008  1
  O  O211  1  0.41950503  0.01089783  0.47635440  1
  O  O212  1  0.99360171  0.11536443  0.48051732  1
  O  O213  1  0.01127326  0.38536686  0.48152719  1
  O  O214  1  0.64593287  0.97081769  0.48914557  1
  O  O215  1  0.35701550  0.53715535  0.49016058  1
  O  O216  1  0.85716239  0.83793149  0.49522073  1
  O  O217  1  0.13494394  0.93282079  0.49563443  1
  O  O218  1  0.86360738  0.56728197  0.49497010  1
  O  O219  1  0.14378851  0.66543941  0.49554721  1
  O  O220  1  0.39135366  0.30206596  0.50750300  1
  O  O221  1  0.60956778  0.20053350  0.50623311  1
  O  O222  1  0.60862063  0.70023678  0.51350233  1
  O  O223  1  0.39135340  0.80252309  0.51380321  1
  O  O224  1  0.14299065  0.16343377  0.52627135  1
  O  O225  1  0.86506540  0.07168494  0.52543244  1
  O  O226  1  0.13424539  0.43548151  0.52722083  1
  O  O227  1  0.85538501  0.33681301  0.52470943  1
  O  O228  1  0.35940539  0.03541352  0.53090004  1
  O  O229  1  0.64166939  0.46225269  0.53095513  1
  O  O230  1  0.00235550  0.88935956  0.54083251  1
  O  O231  1  0.99421239  0.62394482  0.53922737  1
  O  O232  1  0.41984816  0.51817069  0.54358505  1
  O  O233  1  0.58526711  0.98974297  0.54282883  1
  O  O234  1  0.73029067  0.83182985  0.56147406  1
  O  O235  1  0.26052324  0.67018753  0.55904065  1
  O  O236  1  0.37142214  0.25365647  0.56576769  1
  O  O237  1  0.63807085  0.25872111  0.56350051  1
  O  O238  1  0.20447370  0.89211901  0.57168330  1
  O  O239  1  0.78121384  0.61032417  0.57192572  1
  O  O240  1  0.08465582  0.11089176  0.58030879  1
  O  O241  1  0.19179983  0.38822458  0.58044826  1
  O  O242  1  0.81470018  0.11461732  0.57761897  1
  O  O243  1  0.92083097  0.39457398  0.57718889  1
  O  O244  1  0.54522691  0.63431632  0.59193973  1
  O  O245  1  0.44657082  0.86735282  0.58770613  1
  O  O246  1  0.94201636  0.85559869  0.59652392  1
  O  O247  1  0.05059524  0.64527765  0.59551142  1
  O  O248  1  0.41525880  0.38587853  0.61306691  1
  O  O249  1  0.31754942  0.09966013  0.60565782  1
  O  O250  1  0.69714990  0.40227374  0.60525444  1
  O  O251  1  0.59436167  0.11312076  0.60996990  1
  O  O252  1  0.29073506  0.61993193  0.61363325  1
  O  O253  1  0.69568363  0.88016661  0.61299857  1
  O  O254  1  0.14413082  0.26145485  0.62700316  1
  O  O255  1  0.88267848  0.26218442  0.62191137  1
  O  O256  1  0.77146373  0.67748354  0.63017495  1
  O  O257  1  0.24174137  0.84085427  0.62575215  1
  O  O258  1  0.06236949  0.97471950  0.64040529  1
  O  O259  1  0.04515262  0.56932147  0.64753787  1
  O  O260  1  0.48130395  0.63055666  0.65297963  1
  O  O261  1  0.49709358  0.87475773  0.64399547  1
  O  O262  1  0.78509978  0.03126639  0.65211531  1
  O  O263  1  0.33919750  0.19312511  0.65475577  1
  O  O264  1  0.71909685  0.35170403  0.65550043  1
  O  O265  1  0.21909685  0.35170403  0.19924669  1
  O  O266  1  0.83919750  0.19312511  0.19999063  1
  O  O267  1  0.28509978  0.03126639  0.20263110  1
  O  O268  1  0.99709358  0.87475773  0.21075165  1
  O  O269  1  0.98130395  0.63055666  0.20176749  1
