# generated using pymatgen
data_Li38La16Zr10O63
_symmetry_space_group_name_H-M   'P 1'
_cell_length_a   12.70453900
_cell_length_b   13.20454200
_cell_length_c   48.32210826
_cell_angle_alpha   90.00000000
_cell_angle_beta   90.00000000
_cell_angle_gamma   90.00000000
_symmetry_Int_Tables_number   1
_chemical_formula_structural   Li38La16Zr10O63
_chemical_formula_sum   'Li76 La32 Zr20 O126'
_cell_volume   8106.40181830
_cell_formula_units_Z   2
loop_
 _symmetry_equiv_pos_site_id
 _symmetry_equiv_pos_as_xyz
  1  'x, y, z'
loop_
 _atom_site_type_symbol
 _atom_site_label
 _atom_site_symmetry_multiplicity
 _atom_site_fract_x
 _atom_site_fract_y
 _atom_site_fract_z
 _atom_site_occupancy
  Li  Li0  1  0.70448594  0.89811208  0.25694824  1
  Li  Li1  1  0.81241601  0.07049803  0.25619296  1
  Li  Li2  1  0.20496130  0.56332366  0.25641504  1
  Li  Li3  1  0.30089739  0.34059400  0.26583363  1
  Li  Li4  1  0.86954611  0.24108819  0.28251077  1
  Li  Li5  1  0.63396833  0.75450157  0.28548520  1
  Li  Li6  1  0.41495718  0.19761947  0.25604620  1
  Li  Li7  1  0.09673287  0.67964258  0.30283194  1
  Li  Li8  1  0.32779366  0.15855910  0.30014753  1
  Li  Li9  1  0.18367859  0.88227949  0.30296636  1
  Li  Li10  1  0.81517189  0.40747879  0.30301959  1
  Li  Li11  1  0.67483801  0.58509035  0.30545668  1
  Li  Li12  1  0.42994458  0.32546058  0.31021068  1
  Li  Li13  1  0.01026190  0.62603131  0.34603439  1
  Li  Li14  1  0.94775684  0.15124771  0.32918856  1
  Li  Li15  1  0.54988171  0.84507135  0.33019071  1
  Li  Li16  1  0.34818231  0.95228977  0.32476025  1
  Li  Li17  1  0.16062894  0.05933992  0.32863679  1
  Li  Li18  1  0.58968026  0.42565449  0.32960465  1
  Li  Li19  1  0.84463249  0.56538994  0.33112585  1
  Li  Li20  1  0.39293251  0.42266465  0.36634276  1
  Li  Li21  1  0.15715172  0.56754999  0.36838514  1
  Li  Li22  1  0.64223112  0.93947453  0.37254752  1
  Li  Li23  1  0.85243337  0.06449379  0.37205631  1
  Li  Li24  1  0.05501598  0.16624744  0.37357068  1
  Li  Li25  1  0.44338592  0.84236602  0.37332923  1
  Li  Li26  1  0.55611858  0.32500523  0.37319125  1
  Li  Li27  1  0.92718220  0.67220031  0.38464660  1
  Li  Li28  1  0.19936030  0.41100299  0.39558402  1
  Li  Li29  1  0.31286796  0.58656822  0.39531136  1
  Li  Li30  1  0.68740724  0.09448899  0.39980040  1
  Li  Li31  1  0.80808190  0.91296612  0.40018450  1
  Li  Li32  1  0.37379191  0.75345290  0.41823660  1
  Li  Li33  1  0.12638470  0.25207513  0.41971814  1
  Li  Li34  1  0.87223752  0.75933059  0.42060806  1
  Li  Li35  1  0.62760459  0.25444630  0.41919553  1
  Li  Li36  1  0.81325041  0.59293014  0.43650255  1
  Li  Li37  1  0.69393176  0.41049539  0.43881600  1
  Li  Li38  1  0.30555041  0.91766020  0.44261513  1
  Li  Li39  1  0.19778373  0.08468406  0.44445196  1
  Li  Li40  1  0.94124523  0.83228024  0.46404256  1
  Li  Li41  1  0.55989147  0.17408311  0.46121742  1
  Li  Li42  1  0.44380112  0.66470799  0.46305644  1
  Li  Li43  1  0.05721685  0.34056542  0.46591491  1
  Li  Li44  1  0.86283015  0.43567116  0.46541253  1
  Li  Li45  1  0.65370725  0.56695339  0.46491748  1
  Li  Li46  1  0.11336038  0.92443958  0.46802155  1
  Li  Li47  1  0.38942323  0.07916244  0.47265817  1
  Li  Li48  1  0.89887149  0.93234568  0.50798314  1
  Li  Li49  1  0.57591465  0.08396369  0.50724615  1
  Li  Li50  1  0.16434667  0.44222714  0.51011774  1
  Li  Li51  1  0.35478577  0.55338777  0.51010017  1
  Li  Li52  1  0.54670561  0.65598897  0.50667724  1
  Li  Li53  1  0.95044968  0.34671634  0.51104669  1
  Li  Li54  1  0.05880502  0.82646283  0.51149479  1
  Li  Li55  1  0.40974504  0.16218516  0.53261093  1
  Li  Li56  1  0.68926202  0.92733427  0.53088953  1
  Li  Li57  1  0.80731515  0.08401616  0.53420283  1
  Li  Li58  1  0.17868107  0.60545800  0.53467231  1
  Li  Li59  1  0.33492134  0.37628534  0.53900433  1
  Li  Li60  1  0.87399334  0.25668603  0.55434330  1
  Li  Li61  1  0.62936737  0.74966077  0.55179876  1
  Li  Li62  1  0.37739326  0.26653836  0.57882398  1
  Li  Li63  1  0.12818486  0.75836924  0.55480688  1
  Li  Li64  1  0.30105661  0.07196006  0.58003748  1
  Li  Li65  1  0.19049188  0.90768193  0.58111612  1
  Li  Li66  1  0.79820790  0.38734959  0.57967224  1
  Li  Li67  1  0.70748792  0.60819816  0.57874910  1
  Li  Li68  1  0.10069995  0.70123196  0.59691465  1
  Li  Li69  1  0.87215872  0.17693722  0.60021514  1
  Li  Li70  1  0.59231294  0.78778088  0.59601198  1
  Li  Li71  1  0.92664543  0.57548614  0.60885087  1
  Li  Li72  1  0.95773974  0.90063759  0.22968471  1
  Li  Li73  1  0.60103560  0.69523541  0.24233657  1
  Li  Li74  1  0.89228595  0.32775056  0.23897374  1
  Li  Li75  1  0.09630976  0.78476175  0.26252648  1
  La  La76  1  0.25607526  0.02504239  0.24970340  1
  La  La77  1  0.74858040  0.50725334  0.25093989  1
  La  La78  1  0.87238070  0.73860386  0.28584561  1
  La  La79  1  0.39225216  0.75210382  0.28530257  1
  La  La80  1  0.62971818  0.25848604  0.28319905  1
  La  La81  1  0.11155231  0.23870178  0.28455714  1
  La  La82  1  0.74390507  0.00301989  0.31665352  1
  La  La83  1  0.25442121  0.49049358  0.31438029  1
  La  La84  1  0.49951917  0.12119745  0.34745921  1
  La  La85  1  0.00201450  0.38023444  0.34818196  1
  La  La86  1  0.49738986  0.62450306  0.34938451  1
  La  La87  1  0.99804765  0.87867180  0.35046238  1
  La  La88  1  0.74586405  0.49475115  0.38254802  1
  La  La89  1  0.25053278  0.00228398  0.38489894  1
  La  La90  1  0.37618443  0.24843477  0.41888938  1
  La  La91  1  0.87937688  0.24963792  0.41920477  1
  La  La92  1  0.12495761  0.75120814  0.41781015  1
  La  La93  1  0.62085271  0.75323852  0.41930968  1
  La  La94  1  0.25028251  0.49982356  0.45259100  1
  La  La95  1  0.74945498  0.00251213  0.45661608  1
  La  La96  1  0.99865133  0.61991918  0.48749222  1
  La  La97  1  0.49701862  0.87735664  0.48901922  1
  La  La98  1  0.00343483  0.12668542  0.49012266  1
  La  La99  1  0.50272219  0.37763670  0.48345482  1
  La  La100  1  0.24368226  0.98700796  0.52217441  1
  La  La101  1  0.75040269  0.49762607  0.52039869  1
  La  La102  1  0.88021879  0.75730286  0.55338361  1
  La  La103  1  0.37389012  0.74331157  0.55525225  1
  La  La104  1  0.62480372  0.24678686  0.55659330  1
  La  La105  1  0.12511837  0.26324704  0.55682947  1
  La  La106  1  0.74372871  0.96731880  0.58858093  1
  La  La107  1  0.23736311  0.50561175  0.58888120  1
  Zr  Zr108  1  0.00134597  0.98726726  0.27935887  1
  Zr  Zr109  1  0.51074978  0.99908973  0.27544381  1
  Zr  Zr110  1  0.49197810  0.50339923  0.27597135  1
  Zr  Zr111  1  0.00835341  0.49484596  0.27634279  1
  Zr  Zr112  1  0.75220606  0.24924676  0.35062040  1
  Zr  Zr113  1  0.74799664  0.75612834  0.35257693  1
  Zr  Zr114  1  0.25229745  0.25002494  0.35101086  1
  Zr  Zr115  1  0.25055799  0.75850325  0.34944029  1
  Zr  Zr116  1  0.49945945  0.50048842  0.41743962  1
  Zr  Zr117  1  0.00358668  0.49868697  0.41639103  1
  Zr  Zr118  1  0.00137613  0.00277440  0.41992930  1
  Zr  Zr119  1  0.49809289  0.00305332  0.42067208  1
  Zr  Zr120  1  0.25022909  0.74502690  0.48631323  1
  Zr  Zr121  1  0.25432669  0.25680935  0.48897572  1
  Zr  Zr122  1  0.74906699  0.74916164  0.48682555  1
  Zr  Zr123  1  0.75302616  0.25259675  0.48785032  1
  Zr  Zr124  1  0.00062705  0.00713297  0.56189991  1
  Zr  Zr125  1  0.49244715  0.98817108  0.56142368  1
  Zr  Zr126  1  0.51852847  0.50839857  0.55738487  1
  Zr  Zr127  1  0.99401481  0.51083383  0.55848728  1
  O  O128  1  0.86327338  0.92465261  0.25909918  1
  O  O129  1  0.66881300  0.04330766  0.27017176  1
  O  O130  1  0.15927801  0.42933972  0.27098046  1
  O  O131  1  0.34445442  0.57568076  0.27241629  1
  O  O132  1  0.34736212  0.93282804  0.28443164  1
  O  O133  1  0.14735839  0.04957528  0.28970513  1
  O  O134  1  0.64546459  0.45088173  0.29128866  1
  O  O135  1  0.85355278  0.55127343  0.29151529  1
  O  O136  1  0.47646108  0.15085057  0.29449780  1
  O  O137  1  0.03090846  0.83832884  0.29756565  1
  O  O138  1  0.96666088  0.35076411  0.29702788  1
  O  O139  1  0.53660026  0.65094141  0.29920002  1
  O  O140  1  0.78392758  0.19068775  0.31122472  1
  O  O141  1  0.72392704  0.81398951  0.31156484  1
  O  O142  1  0.28060569  0.30058945  0.30981366  1
  O  O143  1  0.22807282  0.73589759  0.30673557  1
  O  O144  1  0.93566682  0.01081822  0.31941839  1
  O  O145  1  0.55230067  0.97928227  0.31987985  1
  O  O146  1  0.06968512  0.53677491  0.32020318  1
  O  O147  1  0.44188698  0.47077959  0.32180274  1
  O  O148  1  0.09724986  0.20860908  0.33525105  1
  O  O149  1  0.40752236  0.79173566  0.33539992  1
  O  O150  1  0.59900019  0.28192794  0.33473481  1
  O  O151  1  0.89752367  0.71303955  0.33797788  1
  O  O152  1  0.30685519  0.10150809  0.33933679  1
  O  O153  1  0.19616917  0.91105064  0.34202366  1
  O  O154  1  0.80969352  0.39875359  0.34257343  1
  O  O155  1  0.69629613  0.60441481  0.34360250  1
  O  O156  1  0.19769665  0.40086343  0.35668174  1
  O  O157  1  0.30123990  0.60632352  0.35556768  1
  O  O158  1  0.69454006  0.09704050  0.35947780  1
  O  O159  1  0.80206019  0.90608502  0.36066838  1
  O  O160  1  0.40453039  0.27611248  0.36685816  1
  O  O161  1  0.10099530  0.71793956  0.36593096  1
  O  O162  1  0.90279539  0.20903058  0.36604846  1
  O  O163  1  0.59493720  0.79323448  0.36687365  1
  O  O164  1  0.94821180  0.53191181  0.37446022  1
  O  O165  1  0.55010310  0.46997287  0.37553749  1
  O  O166  1  0.05426320  0.02443092  0.37873649  1
  O  O167  1  0.44555388  0.98345903  0.37938126  1
  O  O168  1  0.71467658  0.30663299  0.39061650  1
  O  O169  1  0.77905106  0.70129641  0.39301110  1
  O  O170  1  0.21612057  0.19428360  0.39093418  1
  O  O171  1  0.28588225  0.81336009  0.38985383  1
  O  O172  1  0.03630304  0.35178452  0.40171175  1
  O  O173  1  0.46320652  0.64795508  0.40307034  1
  O  O174  1  0.53674605  0.15077858  0.40844966  1
  O  O175  1  0.96511447  0.85453571  0.40495174  1
  O  O176  1  0.34855928  0.44237696  0.40759396  1
  O  O177  1  0.15922114  0.55277441  0.40830790  1
  O  O178  1  0.65311603  0.94834178  0.41227608  1
  O  O179  1  0.84612108  0.05703464  0.41190579  1
  O  O180  1  0.84799743  0.44458566  0.42553507  1
  O  O181  1  0.65469637  0.55332864  0.42578969  1
  O  O182  1  0.15512649  0.94529738  0.42937862  1
  O  O183  1  0.34497641  0.05807566  0.43035432  1
  O  O184  1  0.96380533  0.64937174  0.42727763  1
  O  O185  1  0.53852587  0.35547291  0.43380536  1
  O  O186  1  0.46388968  0.85360652  0.43497354  1
  O  O187  1  0.03644580  0.14990646  0.43486548  1
  O  O188  1  0.28295822  0.69335869  0.44600300  1
  O  O189  1  0.21324698  0.31456932  0.44868202  1
  O  O190  1  0.78574407  0.81137157  0.44767531  1
  O  O191  1  0.71682665  0.19822446  0.44742877  1
  O  O192  1  0.44248546  0.52435069  0.45794889  1
  O  O193  1  0.04918848  0.48065905  0.45805763  1
  O  O194  1  0.54831953  0.03119204  0.46341671  1
  O  O195  1  0.95357420  0.97436407  0.46221173  1
  O  O196  1  0.59719612  0.70798418  0.47122607  1
  O  O197  1  0.90574729  0.29176907  0.47262149  1
  O  O198  1  0.09394476  0.77863521  0.47170254  1
  O  O199  1  0.40307503  0.22608269  0.47033237  1
  O  O200  1  0.80643010  0.60023557  0.47640031  1
  O  O201  1  0.69963865  0.40740373  0.47829434  1
  O  O202  1  0.30154249  0.89588860  0.48089474  1
  O  O203  1  0.19951326  0.10613531  0.48392854  1
  O  O204  1  0.68952787  0.89601008  0.49404398  1
  O  O205  1  0.81074495  0.10461796  0.49545233  1
  O  O206  1  0.19723301  0.59288931  0.49555549  1
  O  O207  1  0.31541390  0.40682348  0.49796077  1
  O  O208  1  0.90241233  0.78546455  0.50204879  1
  O  O209  1  0.59729081  0.22679606  0.50343000  1
  O  O210  1  0.40096977  0.70559314  0.50237028  1
  O  O211  1  0.09998270  0.29900071  0.50396344  1
  O  O212  1  0.43428911  0.02961446  0.51697186  1
  O  O213  1  0.05106207  0.97175560  0.51738667  1
  O  O214  1  0.54980951  0.51664705  0.51676071  1
  O  O215  1  0.93574567  0.48800206  0.51747904  1
  O  O216  1  0.21356131  0.80104495  0.52622670  1
  O  O217  1  0.28336539  0.23034790  0.53120252  1
  O  O218  1  0.71920194  0.68505796  0.52650356  1
  O  O219  1  0.78423375  0.31218802  0.52700669  1
  O  O220  1  0.53292202  0.85117259  0.53884001  1
  O  O221  1  0.96500767  0.14864916  0.54213055  1
  O  O222  1  0.03414787  0.65753031  0.53908332  1
  O  O223  1  0.47069867  0.36034045  0.56058227  1
  O  O224  1  0.84487095  0.94298694  0.54664046  1
  O  O225  1  0.64723949  0.05473102  0.54926471  1
  O  O226  1  0.14924822  0.46542344  0.54875297  1
  O  O227  1  0.35759964  0.55165853  0.55168350  1
  O  O228  1  0.33804076  0.93016532  0.56717207  1
  O  O229  1  0.15442024  0.05734330  0.56868140  1
  O  O230  1  0.67109967  0.46305251  0.56577639  1
  O  O231  1  0.85852860  0.58129616  0.57511171  1
  O  O232  1  0.43320621  0.05755278  0.24260305  1
  O  O233  1  0.08988578  0.92016602  0.24474310  1
  O  O234  1  0.56934669  0.55377969  0.24233224  1
  O  O235  1  0.92812389  0.46180674  0.24128305  1
  O  O236  1  0.26050159  0.19641034  0.25806376  1
  O  O237  1  0.73792581  0.69555757  0.25740711  1
  O  O238  1  0.76652088  0.31350124  0.25715083  1
  O  O239  1  0.54905522  0.84615089  0.26431457  1
  O  O240  1  0.95558109  0.13427744  0.26642823  1
  O  O241  1  0.06074482  0.64090007  0.26591759  1
  O  O242  1  0.45746958  0.35239063  0.26881398  1
  O  O243  1  0.44103385  0.13403439  0.57121295  1
  O  O244  1  0.04072770  0.85292750  0.57353999  1
  O  O245  1  0.96057065  0.36335067  0.56856194  1
  O  O246  1  0.54285641  0.65472168  0.57490418  1
  O  O247  1  0.76154959  0.24265423  0.58426360  1
  O  O248  1  0.73677506  0.79256105  0.58313792  1
  O  O249  1  0.24554958  0.33252305  0.58734245  1
  O  O250  1  0.23272395  0.69842556  0.58136031  1
  O  O251  1  0.91003918  0.04363480  0.59585626  1
  O  O252  1  0.56513050  0.93273203  0.59568714  1
  O  O253  1  0.06289349  0.55991083  0.59836630  1
