# generated using pymatgen
data_Li7La3Zr2O12
_symmetry_space_group_name_H-M   'P 1'
_cell_length_a   12.70453900
_cell_length_b   13.20454200
_cell_length_c   50.40032210
_cell_angle_alpha   90.00000000
_cell_angle_beta   90.00000000
_cell_angle_gamma   90.00000000
_symmetry_Int_Tables_number   1
_chemical_formula_structural   Li7La3Zr2O12
_chemical_formula_sum   'Li84 La36 Zr24 O144'
_cell_volume   8455.03802329
_cell_formula_units_Z   12
loop_
 _symmetry_equiv_pos_site_id
 _symmetry_equiv_pos_as_xyz
  1  'x, y, z'
loop_
 _atom_site_type_symbol
 _atom_site_label
 _atom_site_symmetry_multiplicity
 _atom_site_fract_x
 _atom_site_fract_y
 _atom_site_fract_z
 _atom_site_occupancy
  Li  Li0  1  0.90858026  0.91503684  0.24774327  1
  Li  Li1  1  0.57047824  0.07815422  0.24332525  1
  Li  Li2  1  0.08218422  0.44059265  0.24060343  1
  Li  Li3  1  0.29636224  0.60491773  0.23066984  1
  Li  Li4  1  0.53501936  0.64590352  0.24663653  1
  Li  Li5  1  0.92909056  0.34410024  0.26334978  1
  Li  Li6  1  0.09219291  0.83515434  0.25280409  1
  Li  Li7  1  0.41421798  0.17490490  0.26361399  1
  Li  Li8  1  0.69288799  0.91250136  0.26567443  1
  Li  Li9  1  0.80121138  0.07164953  0.26871496  1
  Li  Li10  1  0.03654375  0.62864769  0.24934504  1
  Li  Li11  1  0.24815741  0.49530781  0.26313214  1
  Li  Li12  1  0.87992084  0.23060847  0.30047231  1
  Li  Li13  1  0.63281373  0.75266451  0.29436598  1
  Li  Li14  1  0.37207736  0.27321688  0.29633343  1
  Li  Li15  1  0.13372687  0.74170181  0.29579533  1
  Li  Li16  1  0.32916517  0.10686110  0.31482416  1
  Li  Li17  1  0.19023036  0.89768750  0.31365516  1
  Li  Li18  1  0.81249665  0.41299987  0.31920328  1
  Li  Li19  1  0.69333295  0.58279893  0.31964359  1
  Li  Li20  1  0.44429751  0.33409205  0.34179357  1
  Li  Li21  1  0.06430287  0.66514832  0.33842831  1
  Li  Li22  1  0.96811536  0.15218215  0.34558200  1
  Li  Li23  1  0.55329690  0.83834826  0.33833881  1
  Li  Li24  1  0.35955920  0.92615291  0.33972340  1
  Li  Li25  1  0.16243276  0.06488892  0.34045164  1
  Li  Li26  1  0.61470037  0.42746409  0.34259087  1
  Li  Li27  1  0.89153954  0.56951615  0.34363574  1
  Li  Li28  1  0.35959846  0.43144986  0.38169484  1
  Li  Li29  1  0.13843298  0.57154056  0.38097228  1
  Li  Li30  1  0.64266760  0.93070210  0.38110015  1
  Li  Li31  1  0.85573457  0.06675419  0.38116308  1
  Li  Li32  1  0.06638404  0.16349032  0.38614705  1
  Li  Li33  1  0.45055268  0.83645072  0.38327000  1
  Li  Li34  1  0.55656572  0.33099604  0.38506035  1
  Li  Li35  1  0.95169111  0.66913253  0.38432001  1
  Li  Li36  1  0.19381128  0.41412006  0.40770040  1
  Li  Li37  1  0.31121776  0.58947090  0.40688833  1
  Li  Li38  1  0.69253053  0.08889609  0.40706939  1
  Li  Li39  1  0.81110177  0.90991651  0.40673188  1
  Li  Li40  1  0.37881703  0.75007545  0.42759568  1
  Li  Li41  1  0.12843597  0.24995835  0.42758411  1
  Li  Li42  1  0.87837532  0.74998196  0.42756117  1
  Li  Li43  1  0.62784132  0.25002496  0.42757275  1
  Li  Li44  1  0.81111531  0.59016134  0.44843654  1
  Li  Li45  1  0.69258130  0.41112753  0.44811279  1
  Li  Li46  1  0.31113165  0.91065847  0.44835934  1
  Li  Li47  1  0.19397002  0.08572174  0.44752708  1
  Li  Li48  1  0.95150138  0.83071597  0.47081734  1
  Li  Li49  1  0.55666251  0.16916676  0.47009547  1
  Li  Li50  1  0.45057421  0.66358793  0.47191463  1
  Li  Li51  1  0.06635573  0.33651176  0.46899722  1
  Li  Li52  1  0.85583455  0.43335091  0.47400244  1
  Li  Li53  1  0.64272614  0.56919320  0.47409403  1
  Li  Li54  1  0.13764870  0.92837319  0.47421220  1
  Li  Li55  1  0.36012948  0.06864456  0.47353522  1
  Li  Li56  1  0.89163254  0.93043007  0.51151234  1
  Li  Li57  1  0.61441861  0.07272417  0.51252584  1
  Li  Li58  1  0.16254832  0.43532667  0.51472097  1
  Li  Li59  1  0.35954724  0.57374338  0.51544266  1
  Li  Li60  1  0.55330442  0.66164898  0.51684354  1
  Li  Li61  1  0.96821957  0.34797629  0.50957279  1
  Li  Li62  1  0.06429705  0.83476970  0.51676571  1
  Li  Li63  1  0.44413733  0.16619506  0.51342056  1
  Li  Li64  1  0.69341555  0.91745024  0.53545513  1
  Li  Li65  1  0.81249508  0.08699764  0.53594638  1
  Li  Li66  1  0.19022672  0.60236922  0.54153401  1
  Li  Li67  1  0.32914132  0.39307946  0.54036405  1
  Li  Li68  1  0.87995224  0.26940468  0.55467986  1
  Li  Li69  1  0.63262655  0.74744758  0.56072791  1
  Li  Li70  1  0.37201914  0.22673743  0.55886722  1
  Li  Li71  1  0.13365449  0.75827742  0.55937837  1
  Li  Li72  1  0.24815495  0.00476942  0.59204066  1
  Li  Li73  1  0.03641390  0.87135839  0.60583162  1
  Li  Li74  1  0.80125794  0.42832310  0.58657407  1
  Li  Li75  1  0.69294203  0.58760549  0.58945731  1
  Li  Li76  1  0.41419302  0.32512748  0.59158846  1
  Li  Li77  1  0.09219402  0.66484026  0.60238315  1
  Li  Li78  1  0.92906076  0.15585679  0.59179884  1
  Li  Li79  1  0.53430062  0.85398440  0.60869326  1
  Li  Li80  1  0.29607789  0.89494897  0.62445045  1
  Li  Li81  1  0.08203151  0.05943910  0.61456494  1
  Li  Li82  1  0.57054702  0.42185747  0.61183791  1
  Li  Li83  1  0.90859232  0.58491976  0.60744843  1
  La  La84  1  0.00517223  0.14026854  0.23624579  1
  La  La85  1  0.47531553  0.39006622  0.23230435  1
  La  La86  1  0.25867291  0.00306482  0.26553950  1
  La  La87  1  0.75452476  0.50450026  0.26757883  1
  La  La88  1  0.88302294  0.74885171  0.29931770  1
  La  La89  1  0.37621086  0.74382690  0.28374217  1
  La  La90  1  0.62415191  0.24832991  0.29827640  1
  La  La91  1  0.13450120  0.25975094  0.29468726  1
  La  La92  1  0.75143448  0.99556774  0.32807127  1
  La  La93  1  0.25355050  0.50425019  0.32750194  1
  La  La94  1  0.50355327  0.11877525  0.36137253  1
  La  La95  1  0.00523729  0.37721053  0.36401915  1
  La  La96  1  0.50123969  0.62327895  0.36314931  1
  La  La97  1  0.00551482  0.87879463  0.36169884  1
  La  La98  1  0.75254864  0.49982696  0.39374266  1
  La  La99  1  0.25529790  0.99698906  0.39368496  1
  La  La100  1  0.37795413  0.24999961  0.42759743  1
  La  La101  1  0.87764095  0.25003570  0.42758053  1
  La  La102  1  0.13058851  0.74999469  0.42758906  1
  La  La103  1  0.62790735  0.75000722  0.42759950  1
  La  La104  1  0.25527565  0.50305592  0.46150500  1
  La  La105  1  0.75255262  0.00017914  0.46143570  1
  La  La106  1  0.00554471  0.62121039  0.49348168  1
  La  La107  1  0.50130370  0.87668147  0.49212729  1
  La  La108  1  0.00522627  0.12289284  0.49115437  1
  La  La109  1  0.50355052  0.38123763  0.49382231  1
  La  La110  1  0.25352289  0.99585690  0.52764605  1
  La  La111  1  0.75150295  0.50434443  0.52711656  1
  La  La112  1  0.88300161  0.75109885  0.55584620  1
  La  La113  1  0.37600378  0.75609440  0.57132380  1
  La  La114  1  0.62409257  0.25161987  0.55687161  1
  La  La115  1  0.13444684  0.24029996  0.56046179  1
  La  La116  1  0.75459003  0.99541373  0.58755891  1
  La  La117  1  0.25872872  0.49697720  0.58963911  1
  La  La118  1  0.47543644  0.10973359  0.62280527  1
  La  La119  1  0.00531076  0.35970487  0.61890514  1
  Zr  Zr120  1  0.81328895  0.75056993  0.22832448  1
  Zr  Zr121  1  0.72887207  0.24654833  0.22649543  1
  Zr  Zr122  1  0.99816301  0.99532732  0.29567050  1
  Zr  Zr123  1  0.50849790  0.99852896  0.29256757  1
  Zr  Zr124  1  0.50054922  0.49775454  0.29445106  1
  Zr  Zr125  1  0.00429334  0.50246181  0.29562494  1
  Zr  Zr126  1  0.75351157  0.24829672  0.36226366  1
  Zr  Zr127  1  0.75160357  0.74936690  0.36239998  1
  Zr  Zr128  1  0.25302143  0.25177104  0.36231563  1
  Zr  Zr129  1  0.25604153  0.74936091  0.36098059  1
  Zr  Zr130  1  0.50333975  0.49925980  0.42753704  1
  Zr  Zr131  1  0.00195100  0.50242446  0.42808961  1
  Zr  Zr132  1  0.00194924  0.99760489  0.42707866  1
  Zr  Zr133  1  0.50333833  0.00072591  0.42767026  1
  Zr  Zr134  1  0.25603458  0.75066121  0.49420268  1
  Zr  Zr135  1  0.25298274  0.24832007  0.49286150  1
  Zr  Zr136  1  0.75165417  0.75053540  0.49276713  1
  Zr  Zr137  1  0.75357479  0.25177202  0.49289836  1
  Zr  Zr138  1  0.00434016  0.99750565  0.55952874  1
  Zr  Zr139  1  0.50055999  0.00204838  0.56064498  1
  Zr  Zr140  1  0.50855416  0.50148772  0.56260485  1
  Zr  Zr141  1  0.99826150  0.50468739  0.55950356  1
  Zr  Zr142  1  0.72893748  0.25367071  0.62858943  1
  Zr  Zr143  1  0.81318063  0.74940711  0.62682482  1
  O  O144  1  0.76747629  0.88632875  0.23078735  1
  O  O145  1  0.82484206  0.13217630  0.22507032  1
  O  O146  1  0.15656166  0.56545563  0.23893109  1
  O  O147  1  0.33192876  0.45314301  0.23113716  1
  O  O148  1  0.95570948  0.77085593  0.24058050  1
  O  O149  1  0.58113569  0.21229279  0.22938534  1
  O  O150  1  0.40464161  0.69561702  0.24447697  1
  O  O151  1  0.05408291  0.28814179  0.24766046  1
  O  O152  1  0.43938509  0.04080064  0.25617733  1
  O  O153  1  0.05137907  0.97916046  0.25300289  1
  O  O154  1  0.57692398  0.51282714  0.25222361  1
  O  O155  1  0.93516410  0.48743498  0.25678463  1
  O  O156  1  0.21643594  0.83356494  0.27378622  1
  O  O157  1  0.27574673  0.18416547  0.27487047  1
  O  O158  1  0.74742612  0.69078167  0.25965658  1
  O  O159  1  0.76620554  0.31532402  0.25930703  1
  O  O160  1  0.55386998  0.85780598  0.28187661  1
  O  O161  1  0.94339871  0.13559914  0.27876232  1
  O  O162  1  0.02713809  0.65351559  0.28745342  1
  O  O163  1  0.47606237  0.34438584  0.27683963  1
  O  O164  1  0.84774518  0.93443658  0.28378234  1
  O  O165  1  0.65466232  0.06472648  0.27802169  1
  O  O166  1  0.15103152  0.43639185  0.28998635  1
  O  O167  1  0.35274197  0.55288351  0.28938072  1
  O  O168  1  0.35506729  0.96028044  0.30369430  1
  O  O169  1  0.14772464  0.04792519  0.30362668  1
  O  O170  1  0.66026543  0.43260775  0.30498908  1
  O  O171  1  0.84178014  0.55818692  0.30675024  1
  O  O172  1  0.47369973  0.15637717  0.30840725  1
  O  O173  1  0.03286393  0.85180364  0.31128832  1
  O  O174  1  0.94702879  0.35381257  0.30376722  1
  O  O175  1  0.56277216  0.63507888  0.30224832  1
  O  O176  1  0.77425299  0.19218264  0.32280785  1
  O  O177  1  0.71990174  0.79910475  0.32331092  1
  O  O178  1  0.29273082  0.31098492  0.32495737  1
  O  O179  1  0.21147692  0.68998942  0.32476214  1
  O  O180  1  0.93960877  0.02418931  0.33366391  1
  O  O181  1  0.56531867  0.98121451  0.33324719  1
  O  O182  1  0.04688549  0.52149222  0.33627501  1
  O  O183  1  0.46204961  0.47242175  0.33410772  1
  O  O184  1  0.10158568  0.21436342  0.34725446  1
  O  O185  1  0.40972769  0.78556264  0.34840776  1
  O  O186  1  0.59768517  0.28348840  0.34842912  1
  O  O187  1  0.90737125  0.71534686  0.34819740  1
  O  O188  1  0.30793402  0.10177134  0.35305851  1
  O  O189  1  0.20438345  0.90132203  0.35248208  1
  O  O190  1  0.81303935  0.39681747  0.35558604  1
  O  O191  1  0.69270126  0.60010168  0.35581039  1
  O  O192  1  0.19932058  0.40168731  0.37048310  1
  O  O193  1  0.30906488  0.59748224  0.36948980  1
  O  O194  1  0.70193360  0.09671120  0.36976937  1
  O  O195  1  0.80391023  0.90217500  0.36898994  1
  O  O196  1  0.40518491  0.28685692  0.37758702  1
  O  O197  1  0.10127225  0.71610371  0.37673154  1
  O  O198  1  0.90687347  0.21023711  0.37690767  1
  O  O199  1  0.60006809  0.78807711  0.37678315  1
  O  O200  1  0.94863519  0.52782138  0.38862846  1
  O  O201  1  0.55699410  0.47232410  0.38827068  1
  O  O202  1  0.05954553  0.02344234  0.38765734  1
  O  O203  1  0.44985027  0.97591358  0.38794670  1
  O  O204  1  0.71918435  0.30294565  0.40073812  1
  O  O205  1  0.78635919  0.69513724  0.40102353  1
  O  O206  1  0.21763264  0.19246908  0.40080062  1
  O  O207  1  0.28637552  0.80741594  0.40082844  1
  O  O208  1  0.03717982  0.35318668  0.41370224  1
  O  O209  1  0.46868055  0.64726135  0.41275962  1
  O  O210  1  0.53844432  0.14776866  0.41343312  1
  O  O211  1  0.96661151  0.85200989  0.41260023  1
  O  O212  1  0.34791966  0.44654981  0.41919305  1
  O  O213  1  0.15641342  0.55602005  0.41882715  1
  O  O214  1  0.65695128  0.94501492  0.41879821  1
  O  O215  1  0.84798771  0.05391064  0.41876778  1
  O  O216  1  0.84799191  0.44607578  0.43640422  1
  O  O217  1  0.65695631  0.55498431  0.43639578  1
  O  O218  1  0.15640113  0.94396822  0.43636536  1
  O  O219  1  0.34794214  0.05350049  0.43602065  1
  O  O220  1  0.96669415  0.64806839  0.44254499  1
  O  O221  1  0.53846390  0.35221272  0.44174509  1
  O  O222  1  0.46872508  0.85274138  0.44244284  1
  O  O223  1  0.03710451  0.14685476  0.44147495  1
  O  O224  1  0.28633840  0.69260968  0.45434403  1
  O  O225  1  0.21756423  0.30755534  0.45437291  1
  O  O226  1  0.78643632  0.80473205  0.45413654  1
  O  O227  1  0.71920859  0.19712586  0.45442169  1
  O  O228  1  0.44984090  0.52410430  0.46724848  1
  O  O229  1  0.05943933  0.47655371  0.46752034  1
  O  O230  1  0.55697151  0.02778214  0.46693239  1
  O  O231  1  0.94878981  0.97209106  0.46654480  1
  O  O232  1  0.60009657  0.71185303  0.47840599  1
  O  O233  1  0.90691183  0.28983807  0.47826527  1
  O  O234  1  0.10123843  0.78382734  0.47846116  1
  O  O235  1  0.40517547  0.21327584  0.47759136  1
  O  O236  1  0.80406721  0.59777498  0.48617392  1
  O  O237  1  0.70197010  0.40334465  0.48541107  1
  O  O238  1  0.30914582  0.90245897  0.48573329  1
  O  O239  1  0.19926980  0.09839999  0.48471978  1
  O  O240  1  0.69285931  0.89987280  0.49930949  1
  O  O241  1  0.81308259  0.10323448  0.49956504  1
  O  O242  1  0.20436218  0.59864716  0.50268680  1
  O  O243  1  0.30792389  0.39829964  0.50212700  1
  O  O244  1  0.90738025  0.78462547  0.50697071  1
  O  O245  1  0.59769284  0.21662917  0.50673009  1
  O  O246  1  0.40969135  0.71435443  0.50677389  1
  O  O247  1  0.10156658  0.28569083  0.50793131  1
  O  O248  1  0.46182349  0.02786381  0.52101631  1
  O  O249  1  0.04693788  0.97843968  0.51888118  1
  O  O250  1  0.56535358  0.51877643  0.52192889  1
  O  O251  1  0.93962827  0.47583188  0.52152326  1
  O  O252  1  0.21158099  0.80994194  0.53044371  1
  O  O253  1  0.29266675  0.18915598  0.53022216  1
  O  O254  1  0.71998309  0.70073952  0.53185001  1
  O  O255  1  0.77423333  0.30777453  0.53235584  1
  O  O256  1  0.56229609  0.86472052  0.55253262  1
  O  O257  1  0.94703088  0.14614295  0.55137776  1
  O  O258  1  0.03292099  0.64822172  0.54387415  1
  O  O259  1  0.47366265  0.34359188  0.54674931  1
  O  O260  1  0.84178849  0.94180937  0.54839235  1
  O  O261  1  0.66022476  0.06721479  0.55012646  1
  O  O262  1  0.14784731  0.45219976  0.55154149  1
  O  O263  1  0.35512564  0.53978495  0.55148373  1
  O  O264  1  0.35276002  0.94713863  0.56577478  1
  O  O265  1  0.15103890  0.06366674  0.56516625  1
  O  O266  1  0.65470982  0.43525633  0.57713474  1
  O  O267  1  0.84785691  0.56551774  0.57140654  1
  O  O268  1  0.47611910  0.15554023  0.57829978  1
  O  O269  1  0.02709202  0.84645882  0.56771672  1
  O  O270  1  0.94374500  0.36429031  0.57637276  1
  O  O271  1  0.55387796  0.64223909  0.57328480  1
  O  O272  1  0.76609766  0.18454806  0.59581247  1
  O  O273  1  0.74756101  0.80913749  0.59544522  1
  O  O274  1  0.27571958  0.31586784  0.58030328  1
  O  O275  1  0.21634950  0.66637653  0.58135752  1
  O  O276  1  0.93510029  0.01252748  0.59835467  1
  O  O277  1  0.57673510  0.98669215  0.60281613  1
  O  O278  1  0.05147399  0.52083696  0.60218494  1
  O  O279  1  0.43945572  0.45920454  0.59899677  1
  O  O280  1  0.05398706  0.21175482  0.60752816  1
  O  O281  1  0.40412149  0.80411016  0.61063616  1
  O  O282  1  0.58110719  0.28764408  0.62576865  1
  O  O283  1  0.95568769  0.72912546  0.61463295  1
  O  O284  1  0.33205293  0.04667396  0.62403411  1
  O  O285  1  0.15641832  0.93469074  0.61621739  1
  O  O286  1  0.82466883  0.36829777  0.62983603  1
  O  O287  1  0.76733307  0.61366441  0.62437125  1
