# generated using pymatgen
data_Li7La3Zr2O12
_symmetry_space_group_name_H-M   'P 1'
_cell_length_a   11.29297700
_cell_length_b   11.29297737
_cell_length_c   58.58063999
_cell_angle_alpha   90.00000000
_cell_angle_beta   90.00000000
_cell_angle_gamma   111.54263211
_symmetry_Int_Tables_number   1
_chemical_formula_structural   Li7La3Zr2O12
_chemical_formula_sum   'Li84 La36 Zr24 O144'
_cell_volume   6948.98679130
_cell_formula_units_Z   12
loop_
 _symmetry_equiv_pos_site_id
 _symmetry_equiv_pos_as_xyz
  1  'x, y, z'
loop_
 _atom_site_type_symbol
 _atom_site_label
 _atom_site_symmetry_multiplicity
 _atom_site_fract_x
 _atom_site_fract_y
 _atom_site_fract_z
 _atom_site_occupancy
  Li  Li0  1  0.57102954  0.92107167  0.23558021  1
  Li  Li1  1  0.84206944  0.59208663  0.23403796  1
  Li  Li2  1  0.40620743  0.56396599  0.24648538  1
  Li  Li3  1  0.59619021  0.54732764  0.26107264  1
  Li  Li4  1  0.41285265  0.95105776  0.25946361  1
  Li  Li5  1  0.28750822  0.37138583  0.26600439  1
  Li  Li6  1  0.21626441  0.98774698  0.26004971  1
  Li  Li7  1  0.76726242  0.49286373  0.26858841  1
  Li  Li8  1  0.67175367  0.06203519  0.26651683  1
  Li  Li9  1  0.19042841  0.18220379  0.28497788  1
  Li  Li10  1  0.80779193  0.30098501  0.28655718  1
  Li  Li11  1  0.01110868  0.24493450  0.29362874  1
  Li  Li12  1  0.76363321  0.60510267  0.30616059  1
  Li  Li13  1  0.22519439  0.39343093  0.31043176  1
  Li  Li14  1  0.22790932  0.93389698  0.29818841  1
  Li  Li15  1  0.77928028  0.10663134  0.30938503  1
  Li  Li16  1  0.95186659  0.72069910  0.32762117  1
  Li  Li17  1  0.78801820  0.81145990  0.33499470  1
  Li  Li18  1  0.18471551  0.78476244  0.33069120  1
  Li  Li19  1  0.67852332  0.56976681  0.34766325  1
  Li  Li20  1  0.74700100  0.00146494  0.34817661  1
  Li  Li21  1  0.24455783  0.50935008  0.34908569  1
  Li  Li22  1  0.34563123  0.96118617  0.34743316  1
  Li  Li23  1  0.44146397  0.45111498  0.36170927  1
  Li  Li24  1  0.56231199  0.05592365  0.36189516  1
  Li  Li25  1  0.49846723  0.24923553  0.37323383  1
  Li  Li26  1  0.85608213  0.02351351  0.38604056  1
  Li  Li27  1  0.63891685  0.47364932  0.38975576  1
  Li  Li28  1  0.13352951  0.46788563  0.38920144  1
  Li  Li29  1  0.35907520  0.02614995  0.39025616  1
  Li  Li30  1  0.98255211  0.22841996  0.40747525  1
  Li  Li31  1  0.06372597  0.05251854  0.41566717  1
  Li  Li32  1  0.94510425  0.44601679  0.41642316  1
  Li  Li33  1  0.82975326  0.94348276  0.42753848  1
  Li  Li34  1  0.74872264  0.50054841  0.42907046  1
  Li  Li35  1  0.24933868  0.00138429  0.42850879  1
  Li  Li36  1  0.19591134  0.58820416  0.42932004  1
  Li  Li37  1  0.69379530  0.69660780  0.44136855  1
  Li  Li38  1  0.30058144  0.81730174  0.44205022  1
  Li  Li39  1  0.48114916  0.73902080  0.45131547  1
  Li  Li40  1  0.27259230  0.10988369  0.46649485  1
  Li  Li41  1  0.71785905  0.88882143  0.46857970  1
  Li  Li42  1  0.71785905  0.38882143  0.46911353  1
  Li  Li43  1  0.27259230  0.60988369  0.47119906  1
  Li  Li44  1  0.48114916  0.23902080  0.48637844  1
  Li  Li45  1  0.30058144  0.31730174  0.49564369  1
  Li  Li46  1  0.69379530  0.19660780  0.49632468  1
  Li  Li47  1  0.19591134  0.08820416  0.50837387  1
  Li  Li48  1  0.24933868  0.50138529  0.50918512  1
  Li  Li49  1  0.74872264  0.00054841  0.50862345  1
  Li  Li50  1  0.82975326  0.44348276  0.51015542  1
  Li  Li51  1  0.94510425  0.94601679  0.52127075  1
  Li  Li52  1  0.06372597  0.55251854  0.52202674  1
  Li  Li53  1  0.98255211  0.72841996  0.53021866  1
  Li  Li54  1  0.35907520  0.52614995  0.54743706  1
  Li  Li55  1  0.13352951  0.96788563  0.54849247  1
  Li  Li56  1  0.63891685  0.97364932  0.54793815  1
  Li  Li57  1  0.85608213  0.52351351  0.55165267  1
  Li  Li58  1  0.49846723  0.74923553  0.56446008  1
  Li  Li59  1  0.56231199  0.55592465  0.57579874  1
  Li  Li60  1  0.44146397  0.95111498  0.57598464  1
  Li  Li61  1  0.34563123  0.46118617  0.59026075  1
  Li  Li62  1  0.24455783  0.00935008  0.58860822  1
  Li  Li63  1  0.74700200  0.50146594  0.58951730  1
  Li  Li64  1  0.67852332  0.06976681  0.59002998  1
  Li  Li65  1  0.18471551  0.28476244  0.60700203  1
  Li  Li66  1  0.78801820  0.31145990  0.60269921  1
  Li  Li67  1  0.95186659  0.22069910  0.61007274  1
  Li  Li68  1  0.77928028  0.60663134  0.62830888  1
  Li  Li69  1  0.22790932  0.43389698  0.63950481  1
  Li  Li70  1  0.22519439  0.89343093  0.62726147  1
  Li  Li71  1  0.76363321  0.10510267  0.63153332  1
  Li  Li72  1  0.01110868  0.74493450  0.64406517  1
  Li  Li73  1  0.80779193  0.80098501  0.65113673  1
  Li  Li74  1  0.19042841  0.68220379  0.65271603  1
  Li  Li75  1  0.67175367  0.56203519  0.67117708  1
  Li  Li76  1  0.76726142  0.99286273  0.66910550  1
  Li  Li77  1  0.21626441  0.48774698  0.67764420  1
  Li  Li78  1  0.28750822  0.87138583  0.67168952  1
  Li  Li79  1  0.41285265  0.45105776  0.67823030  1
  Li  Li80  1  0.59619021  0.04732764  0.67662127  1
  Li  Li81  1  0.40620743  0.06396599  0.00820037  1
  Li  Li82  1  0.84206944  0.09208663  0.02064710  1
  Li  Li83  1  0.57102954  0.42107167  0.01910554  1
  La  La84  1  0.96005895  0.06257959  0.25065060  1
  La  La85  1  0.05524070  0.44481712  0.25227615  1
  La  La86  1  0.99329908  0.75165246  0.27176437  1
  La  La87  1  0.50253707  0.26952220  0.26821705  1
  La  La88  1  0.68872426  0.81842307  0.28262398  1
  La  La89  1  0.31357203  0.68313351  0.28886860  1
  La  La90  1  0.31467369  0.19948337  0.33122188  1
  La  La91  1  0.68612620  0.30966533  0.33083883  1
  La  La92  1  0.99873517  0.24888357  0.35030562  1
  La  La93  1  0.49602636  0.75275734  0.34769457  1
  La  La94  1  0.06686025  0.93423847  0.36860310  1
  La  La95  1  0.93333375  0.56165095  0.36951051  1
  La  La96  1  0.43696555  0.56629059  0.40880035  1
  La  La97  1  0.56183790  0.93531798  0.40971804  1
  La  La98  1  0.49843429  0.25199779  0.42943961  1
  La  La99  1  0.99816569  0.75043640  0.42867356  1
  La  La100  1  0.18338148  0.31773772  0.44824188  1
  La  La101  1  0.81049380  0.18721847  0.44929201  1
  La  La102  1  0.81049280  0.68721847  0.48840190  1
  La  La103  1  0.18338148  0.81773772  0.48945203  1
  La  La104  1  0.49843429  0.75199779  0.50825430  1
  La  La105  1  0.99816569  0.25043640  0.50902035  1
  La  La106  1  0.56183790  0.43531798  0.52797518  1
  La  La107  1  0.43696555  0.06629059  0.52889287  1
  La  La108  1  0.93333375  0.06165095  0.56818271  1
  La  La109  1  0.06686025  0.43423847  0.56909013  1
  La  La110  1  0.99873517  0.74888357  0.58738829  1
  La  La111  1  0.49602636  0.25275734  0.58999934  1
  La  La112  1  0.68612620  0.80966533  0.60685508  1
  La  La113  1  0.31467369  0.69948337  0.60647203  1
  La  La114  1  0.31357303  0.18313351  0.64882531  1
  La  La115  1  0.68872426  0.31842307  0.65506993  1
  La  La116  1  0.99329908  0.25165246  0.66592954  1
  La  La117  1  0.50253707  0.76952220  0.66947686  1
  La  La118  1  0.05524070  0.94481712  0.00240892  1
  La  La119  1  0.96005895  0.56257959  0.00403447  1
  Zr  Zr120  1  0.72653435  0.25378529  0.22490425  1
  Zr  Zr121  1  0.21408415  0.77299906  0.23526952  1
  Zr  Zr122  1  0.99988309  0.99984038  0.31121063  1
  Zr  Zr123  1  0.49711505  0.50520607  0.30798517  1
  Zr  Zr124  1  0.50586799  0.00499620  0.30626986  1
  Zr  Zr125  1  0.00070825  0.49696387  0.31156643  1
  Zr  Zr126  1  0.25080160  0.25297283  0.38962717  1
  Zr  Zr127  1  0.74826288  0.74979036  0.38776665  1
  Zr  Zr128  1  0.24940589  0.74998883  0.38791308  1
  Zr  Zr129  1  0.74791842  0.24819028  0.38997894  1
  Zr  Zr130  1  0.49798046  0.50230570  0.46861358  1
  Zr  Zr131  1  0.99782485  0.00156157  0.46845139  1
  Zr  Zr132  1  0.99782485  0.50156157  0.46924252  1
  Zr  Zr133  1  0.49798046  0.00230570  0.46907964  1
  Zr  Zr134  1  0.74791842  0.74819028  0.54771497  1
  Zr  Zr135  1  0.24940589  0.24998883  0.54978083  1
  Zr  Zr136  1  0.74826288  0.24979036  0.54992726  1
  Zr  Zr137  1  0.25080160  0.75297283  0.54806674  1
  Zr  Zr138  1  0.00070825  0.99696387  0.62612748  1
  Zr  Zr139  1  0.50586799  0.50499620  0.63142405  1
  Zr  Zr140  1  0.49711505  0.00520607  0.62970874  1
  Zr  Zr141  1  0.99988309  0.49984038  0.62648260  1
  Zr  Zr142  1  0.21408415  0.27299906  0.01941623  1
  Zr  Zr143  1  0.72653435  0.75378529  0.02978151  1
  O  O144  1  0.11066760  0.89119682  0.23624433  1
  O  O145  1  0.02120400  0.62312962  0.23709111  1
  O  O146  1  0.44201915  0.40774371  0.24904315  1
  O  O147  1  0.39352126  0.87390555  0.22786189  1
  O  O148  1  0.72843785  0.40894556  0.23809800  1
  O  O149  1  0.59513963  0.13100232  0.24246943  1
  O  O150  1  0.25727856  0.60458691  0.24811032  1
  O  O151  1  0.74367324  0.94741399  0.24915701  1
  O  O152  1  0.10747387  0.25348085  0.26245306  1
  O  O153  1  0.88701564  0.24240060  0.23351890  1
  O  O154  1  0.77982620  0.66695484  0.26159915  1
  O  O155  1  0.23771185  0.82475730  0.26889623  1
  O  O156  1  0.09211201  0.99177609  0.28023360  1
  O  O157  1  0.90957011  0.47169290  0.27913781  1
  O  O158  1  0.49654922  0.62555566  0.27891876  1
  O  O159  1  0.52231385  0.90068657  0.27782024  1
  O  O160  1  0.14459240  0.47311572  0.29139797  1
  O  O161  1  0.88231464  0.05841776  0.28881218  1
  O  O162  1  0.35131867  0.33222743  0.29553931  1
  O  O163  1  0.63248093  0.44589678  0.29052048  1
  O  O164  1  0.37729513  0.07034157  0.28524033  1
  O  O165  1  0.65390361  0.17071674  0.29372981  1
  O  O166  1  0.88146138  0.80752255  0.30587148  1
  O  O167  1  0.08313198  0.69238189  0.30653742  1
  O  O168  1  0.11260152  0.19957350  0.31558791  1
  O  O169  1  0.89269743  0.29339826  0.31474616  1
  O  O170  1  0.63688956  0.66441599  0.32270099  1
  O  O171  1  0.36241858  0.56653789  0.32343319  1
  O  O172  1  0.63958637  0.94017690  0.32192543  1
  O  O173  1  0.36027847  0.84663991  0.32101933  1
  O  O174  1  0.84567569  0.53133408  0.32877489  1
  O  O175  1  0.15525277  0.96697778  0.32846735  1
  O  O176  1  0.51296676  0.39068971  0.33633016  1
  O  O177  1  0.48955047  0.11626528  0.33568251  1
  O  O178  1  0.91887166  0.00941469  0.34300781  1
  O  O179  1  0.06635118  0.47419430  0.34418411  1
  O  O180  1  0.24441614  0.33700815  0.35735725  1
  O  O181  1  0.75611309  0.16664620  0.35748745  1
  O  O182  1  0.86199294  0.73938501  0.35918705  1
  O  O183  1  0.12623373  0.75280359  0.36111192  1
  O  O184  1  0.71154664  0.38817007  0.36982656  1
  O  O185  1  0.29137306  0.11291003  0.36962315  1
  O  O186  1  0.58554754  0.60561762  0.37399898  1
  O  O187  1  0.68042690  0.88368981  0.37264860  1
  O  O188  1  0.32270497  0.61808851  0.37433526  1
  O  O189  1  0.41251257  0.89520622  0.37350516  1
  O  O190  1  0.05390133  0.14127057  0.38583210  1
  O  O191  1  0.94547741  0.35457097  0.38734589  1
  O  O192  1  0.45032668  0.36048718  0.39292384  1
  O  O193  1  0.54909560  0.13851650  0.39290270  1
  O  O194  1  0.91481119  0.89244962  0.40217324  1
  O  O195  1  0.81548696  0.61432823  0.40337870  1
  O  O196  1  0.18415269  0.88794422  0.40328990  1
  O  O197  1  0.08642640  0.60727986  0.40356829  1
  O  O198  1  0.78583415  0.10333087  0.40869944  1
  O  O199  1  0.21946775  0.39705609  0.40916761  1
  O  O200  1  0.63216304  0.75914006  0.41609471  1
  O  O201  1  0.36216212  0.74400573  0.41754037  1
  O  O202  1  0.26036877  0.17069846  0.42180760  1
  O  O203  1  0.73442456  0.32816306  0.42217447  1
  O  O204  1  0.57940588  0.49044723  0.43652811  1
  O  O205  1  0.41655593  0.01340314  0.43675587  1
  O  O206  1  0.98855812  0.11525995  0.43966241  1
  O  O207  1  0.00278169  0.38133955  0.44166131  1
  O  O208  1  0.64081054  0.97069354  0.44895925  1
  O  O209  1  0.35563707  0.54207021  0.44924625  1
  O  O210  1  0.85431477  0.83839754  0.45354499  1
  O  O211  1  0.13396364  0.93525297  0.45343352  1
  O  O212  1  0.86375963  0.56956221  0.45413074  1
  O  O213  1  0.14076643  0.66644563  0.45495828  1
  O  O214  1  0.38751425  0.30446621  0.46519711  1
  O  O215  1  0.60503811  0.20173076  0.46617946  1
  O  O216  1  0.60503811  0.70173076  0.47151445  1
  O  O217  1  0.38751425  0.80446621  0.47249680  1
  O  O218  1  0.14076643  0.16644563  0.48273563  1
  O  O219  1  0.86375963  0.06956221  0.48356317  1
  O  O220  1  0.13396364  0.43525297  0.48426039  1
  O  O221  1  0.85431477  0.33839754  0.48414892  1
  O  O222  1  0.35563707  0.04207021  0.48844766  1
  O  O223  1  0.64081054  0.47069354  0.48873398  1
  O  O224  1  0.00278169  0.88133955  0.49603192  1
  O  O225  1  0.98855812  0.61525995  0.49803081  1
  O  O226  1  0.41655593  0.51340314  0.50093804  1
  O  O227  1  0.57940588  0.99044723  0.50116512  1
  O  O228  1  0.73442456  0.82816306  0.51551944  1
  O  O229  1  0.26036877  0.67069846  0.51588562  1
  O  O230  1  0.36216212  0.24400573  0.52015354  1
  O  O231  1  0.63216304  0.25914006  0.52159920  1
  O  O232  1  0.21946775  0.89705609  0.52852630  1
  O  O233  1  0.78583415  0.60333087  0.52899379  1
  O  O234  1  0.08642640  0.10727986  0.53412493  1
  O  O235  1  0.18415269  0.38794422  0.53440401  1
  O  O236  1  0.81548696  0.11432823  0.53431521  1
  O  O237  1  0.91481119  0.39244962  0.53551999  1
  O  O238  1  0.54909560  0.63851650  0.54479121  1
  O  O239  1  0.45032668  0.86048718  0.54477007  1
  O  O240  1  0.94547741  0.85457097  0.55034802  1
  O  O241  1  0.05390133  0.64127057  0.55186181  1
  O  O242  1  0.41251257  0.39520622  0.56418806  1
  O  O243  1  0.32270497  0.11808851  0.56335865  1
  O  O244  1  0.68042690  0.38368981  0.56504531  1
  O  O245  1  0.58554754  0.10561762  0.56369424  1
  O  O246  1  0.29137306  0.61291003  0.56807008  1
  O  O247  1  0.71154664  0.88817007  0.56786735  1
  O  O248  1  0.12623373  0.25280359  0.57658199  1
  O  O249  1  0.86199294  0.23938501  0.57850686  1
  O  O250  1  0.75611309  0.66666667  0.58020646  1
  O  O251  1  0.24441614  0.83700815  0.58033666  1
  O  O252  1  0.06635118  0.97419430  0.59350911  1
  O  O253  1  0.91887166  0.50941469  0.59468610  1
  O  O254  1  0.48955047  0.61626528  0.60201140  1
  O  O255  1  0.51296676  0.89068971  0.60136307  1
  O  O256  1  0.15525277  0.46697778  0.60922588  1
  O  O257  1  0.84567569  0.03133408  0.60891902  1
  O  O258  1  0.36027847  0.34663991  0.61667458  1
  O  O259  1  0.63958637  0.44017690  0.61576848  1
  O  O260  1  0.36241858  0.06653789  0.61426072  1
  O  O261  1  0.63688956  0.16441599  0.61499291  1
  O  O262  1  0.89269743  0.79339826  0.62294775  1
  O  O263  1  0.11260152  0.69957350  0.62210600  1
  O  O264  1  0.08313198  0.19238189  0.63115649  1
  O  O265  1  0.88146138  0.30752255  0.63182243  1
  O  O266  1  0.65390361  0.67071674  0.64396410  1
  O  O267  1  0.37729513  0.57034157  0.65245358  1
  O  O268  1  0.63248093  0.94589678  0.64717342  1
  O  O269  1  0.35131867  0.83222743  0.64215460  1
  O  O270  1  0.88231464  0.55841776  0.64888173  1
  O  O271  1  0.14459240  0.97311572  0.64629526  1
  O  O272  1  0.52231385  0.40068657  0.65987298  1
  O  O273  1  0.49654922  0.12555566  0.65877447  1
  O  O274  1  0.90957011  0.97169290  0.65855610  1
  O  O275  1  0.09211201  0.49177609  0.65745963  1
  O  O276  1  0.23771185  0.32475730  0.66879767  1
  O  O277  1  0.77982620  0.16695484  0.67609408  1
  O  O278  1  0.88701564  0.74240060  0.02116685  1
  O  O279  1  0.10747387  0.75348085  0.67524085  1
  O  O280  1  0.74367324  0.44741399  0.00552874  1
  O  O281  1  0.25727856  0.10458691  0.00657475  1
  O  O282  1  0.59513963  0.63100232  0.01221564  1
  O  O283  1  0.72843785  0.90894556  0.01658775  1
  O  O284  1  0.39352126  0.37390555  0.02682386  1
  O  O285  1  0.44201915  0.90774371  0.00564191  1
  O  O286  1  0.02120400  0.12312962  0.01759465  1
  O  O287  1  0.11066760  0.39119682  0.01844142  1
