# generated using pymatgen
data_Li21La9Zr5O34
_symmetry_space_group_name_H-M   'P 1'
_cell_length_a   12.70453900
_cell_length_b   13.20454200
_cell_length_c   31.80681200
_cell_angle_alpha   90.00000000
_cell_angle_beta   90.00000000
_cell_angle_gamma   90.00000000
_symmetry_Int_Tables_number   1
_chemical_formula_structural   Li21La9Zr5O34
_chemical_formula_sum   'Li84 La36 Zr20 O136'
_cell_volume   5335.83504325
_cell_formula_units_Z   4
loop_
 _symmetry_equiv_pos_site_id
 _symmetry_equiv_pos_as_xyz
  1  'x, y, z'
loop_
 _atom_site_type_symbol
 _atom_site_label
 _atom_site_symmetry_multiplicity
 _atom_site_fract_x
 _atom_site_fract_y
 _atom_site_fract_z
 _atom_site_occupancy
  Li  Li0  1  0.90250810  0.93059430  0.08542499  1
  Li  Li1  1  0.57862186  0.08662381  0.08685103  1
  Li  Li2  1  0.16146646  0.39115113  0.08314947  1
  Li  Li3  1  0.38274879  0.56425121  0.08998954  1
  Li  Li4  1  0.59078142  0.68466171  0.10763038  1
  Li  Li5  1  0.92413481  0.34173973  0.10405363  1
  Li  Li6  1  0.09818208  0.81159663  0.10609507  1
  Li  Li7  1  0.41639154  0.15939010  0.11149492  1
  Li  Li8  1  0.69568069  0.89019981  0.13047275  1
  Li  Li9  1  0.80118157  0.06403731  0.11865608  1
  Li  Li10  1  0.19315149  0.59929113  0.13193535  1
  Li  Li11  1  0.30486666  0.43201130  0.13135742  1
  Li  Li12  1  0.87156567  0.24039920  0.16400320  1
  Li  Li13  1  0.63176809  0.74861789  0.17203093  1
  Li  Li14  1  0.37084639  0.25741181  0.16694423  1
  Li  Li15  1  0.13174514  0.74702417  0.17043429  1
  Li  Li16  1  0.31894780  0.09670645  0.19331214  1
  Li  Li17  1  0.18708507  0.90381009  0.20039739  1
  Li  Li18  1  0.81953222  0.40203791  0.19446425  1
  Li  Li19  1  0.69836868  0.58565731  0.20185733  1
  Li  Li20  1  0.44781051  0.33822162  0.23415723  1
  Li  Li21  1  0.05880928  0.66939574  0.23507230  1
  Li  Li22  1  0.95036312  0.15834750  0.23439471  1
  Li  Li23  1  0.55361563  0.83642457  0.23727155  1
  Li  Li24  1  0.35889698  0.93841931  0.24171566  1
  Li  Li25  1  0.14970222  0.06703826  0.23727701  1
  Li  Li26  1  0.64361303  0.42766350  0.23806145  1
  Li  Li27  1  0.89102193  0.56395447  0.24070794  1
  Li  Li28  1  0.38023301  0.43003390  0.30033812  1
  Li  Li29  1  0.13146028  0.56820438  0.29993181  1
  Li  Li30  1  0.64636440  0.93444327  0.29982867  1
  Li  Li31  1  0.86297878  0.06770152  0.30036506  1
  Li  Li32  1  0.05483700  0.16800925  0.30424090  1
  Li  Li33  1  0.44630281  0.83760924  0.30652409  1
  Li  Li34  1  0.55721757  0.32796022  0.30502559  1
  Li  Li35  1  0.94375879  0.66542022  0.30716701  1
  Li  Li36  1  0.19284339  0.40950539  0.33952492  1
  Li  Li37  1  0.30638771  0.58508006  0.34291697  1
  Li  Li38  1  0.69101542  0.09225750  0.34071504  1
  Li  Li39  1  0.80916432  0.91190530  0.34378516  1
  Li  Li40  1  0.37498313  0.74998075  0.37423308  1
  Li  Li41  1  0.12567478  0.24996157  0.37428166  1
  Li  Li42  1  0.87503776  0.74996543  0.37421060  1
  Li  Li43  1  0.62606962  0.24988985  0.37423708  1
  Li  Li44  1  0.80916912  0.58807685  0.40472698  1
  Li  Li45  1  0.69094517  0.40763884  0.40770706  1
  Li  Li46  1  0.30638988  0.91481544  0.40554187  1
  Li  Li47  1  0.19296248  0.09028701  0.40902838  1
  Li  Li48  1  0.94361971  0.83449890  0.44125729  1
  Li  Li49  1  0.55718985  0.17198135  0.44352989  1
  Li  Li50  1  0.44623192  0.66238470  0.44193479  1
  Li  Li51  1  0.05471979  0.33205302  0.44427949  1
  Li  Li52  1  0.86286128  0.43233343  0.44810392  1
  Li  Li53  1  0.64628584  0.56545249  0.44865737  1
  Li  Li54  1  0.13115600  0.93180950  0.44858997  1
  Li  Li55  1  0.38025603  0.06992469  0.44819269  1
  Li  Li56  1  0.89096442  0.93610384  0.50775255  1
  Li  Li57  1  0.64398424  0.07232193  0.51045323  1
  Li  Li58  1  0.14957844  0.43295719  0.51123561  1
  Li  Li59  1  0.35863790  0.56157467  0.50679098  1
  Li  Li60  1  0.55353678  0.66348240  0.51113349  1
  Li  Li61  1  0.95021443  0.34160966  0.51415637  1
  Li  Li62  1  0.05872021  0.83066226  0.51335417  1
  Li  Li63  1  0.44785419  0.16177656  0.51437747  1
  Li  Li64  1  0.69828137  0.91420618  0.54663044  1
  Li  Li65  1  0.81973988  0.09802479  0.55404954  1
  Li  Li66  1  0.18711829  0.59619682  0.54815024  1
  Li  Li67  1  0.31894934  0.40335968  0.55516528  1
  Li  Li68  1  0.87163019  0.25961797  0.58447682  1
  Li  Li69  1  0.63177068  0.75132065  0.57637363  1
  Li  Li70  1  0.37088935  0.24271436  0.58154139  1
  Li  Li71  1  0.13176007  0.75306318  0.57799578  1
  Li  Li72  1  0.30490809  0.06802925  0.61713979  1
  Li  Li73  1  0.19320496  0.90065955  0.61654820  1
  Li  Li74  1  0.80130199  0.43607270  0.62980173  1
  Li  Li75  1  0.69578028  0.60987040  0.61798135  1
  Li  Li76  1  0.41654063  0.34066882  0.63699772  1
  Li  Li77  1  0.09819199  0.68845515  0.64230561  1
  Li  Li78  1  0.92420993  0.15823882  0.64439824  1
  Li  Li79  1  0.59064293  0.81536211  0.64068939  1
  Li  Li80  1  0.38281646  0.93581612  0.65850903  1
  Li  Li81  1  0.16144418  0.10880329  0.66532740  1
  Li  Li82  1  0.57888860  0.41337305  0.66156874  1
  Li  Li83  1  0.90254006  0.56947787  0.66310613  1
  La  La84  1  0.00349561  0.12247903  0.06938154  1
  La  La85  1  0.47813903  0.37516320  0.07203106  1
  La  La86  1  0.25848942  0.98869608  0.11765422  1
  La  La87  1  0.75525717  0.50733737  0.11725183  1
  La  La88  1  0.87627054  0.74005736  0.17009563  1
  La  La89  1  0.37558324  0.75715604  0.17188452  1
  La  La90  1  0.62754779  0.25238635  0.16059182  1
  La  La91  1  0.12473921  0.24676168  0.16193435  1
  La  La92  1  0.74908915  0.99937421  0.21673325  1
  La  La93  1  0.24517758  0.50165564  0.21967604  1
  La  La94  1  0.50058962  0.12116149  0.26627388  1
  La  La95  1  0.00023144  0.37505392  0.26649683  1
  La  La96  1  0.49967744  0.62185943  0.27228541  1
  La  La97  1  0.99878712  0.87966532  0.27161285  1
  La  La98  1  0.74916071  0.49545997  0.32020935  1
  La  La99  1  0.24786408  0.00529213  0.32174863  1
  La  La100  1  0.37638899  0.24997526  0.37424984  1
  La  La101  1  0.87610848  0.24999673  0.37423663  1
  La  La102  1  0.12248865  0.75001439  0.37425065  1
  La  La103  1  0.62389862  0.74996634  0.37423627  1
  La  La104  1  0.24785354  0.49471169  0.42675391  1
  La  La105  1  0.74914577  0.00456205  0.42826118  1
  La  La106  1  0.99882777  0.62033809  0.47687543  1
  La  La107  1  0.49969540  0.87813579  0.47617753  1
  La  La108  1  0.00023261  0.12497783  0.48198102  1
  La  La109  1  0.50058185  0.37884191  0.48223029  1
  La  La110  1  0.24517481  0.99835666  0.52880569  1
  La  La111  1  0.74917601  0.50062190  0.53174170  1
  La  La112  1  0.87629889  0.75994863  0.57836243  1
  La  La113  1  0.37562802  0.74285440  0.57657629  1
  La  La114  1  0.62763656  0.24754656  0.58785343  1
  La  La115  1  0.12480567  0.25325113  0.58657033  1
  La  La116  1  0.75526204  0.99261906  0.63120171  1
  La  La117  1  0.25860424  0.51129879  0.63085430  1
  La  La118  1  0.47823424  0.12487163  0.67641422  1
  La  La119  1  0.00344305  0.37753811  0.67911682  1
  Zr  Zr120  1  0.99764717  0.98533316  0.16484959  1
  Zr  Zr121  1  0.50789160  0.99213978  0.16092438  1
  Zr  Zr122  1  0.49663064  0.51340838  0.16736848  1
  Zr  Zr123  1  0.00574486  0.50229720  0.15907050  1
  Zr  Zr124  1  0.75036643  0.24686323  0.26792319  1
  Zr  Zr125  1  0.75076624  0.74884670  0.27202110  1
  Zr  Zr126  1  0.25064617  0.25117872  0.26830102  1
  Zr  Zr127  1  0.25029400  0.75146560  0.27329629  1
  Zr  Zr128  1  0.50049926  0.49714530  0.37572244  1
  Zr  Zr129  1  0.99963826  0.49654508  0.37288487  1
  Zr  Zr130  1  0.99962844  0.00345376  0.37560184  1
  Zr  Zr131  1  0.50052536  0.00280102  0.37274359  1
  Zr  Zr132  1  0.25028339  0.74861560  0.47519061  1
  Zr  Zr133  1  0.25063849  0.24885379  0.48020478  1
  Zr  Zr134  1  0.75076576  0.75112110  0.47643854  1
  Zr  Zr135  1  0.75041084  0.25314120  0.48054343  1
  Zr  Zr136  1  0.00579147  0.99766335  0.58940534  1
  Zr  Zr137  1  0.49661481  0.98663603  0.58108070  1
  Zr  Zr138  1  0.50796584  0.50788729  0.58753283  1
  Zr  Zr139  1  0.99772848  0.51469139  0.58366653  1
  O  O140  1  0.23389120  0.80766251  0.12832455  1
  O  O141  1  0.27492076  0.16976228  0.13153574  1
  O  O142  1  0.72942543  0.68926081  0.12823862  1
  O  O143  1  0.77552417  0.32620718  0.12908812  1
  O  O144  1  0.54187108  0.84050963  0.14431261  1
  O  O145  1  0.95650160  0.12990329  0.14171005  1
  O  O146  1  0.04449130  0.65389150  0.14345724  1
  O  O147  1  0.44921819  0.36953942  0.14438819  1
  O  O148  1  0.85092132  0.91821899  0.14303495  1
  O  O149  1  0.65790237  0.04411018  0.14153662  1
  O  O150  1  0.15912083  0.45014753  0.14624651  1
  O  O151  1  0.34561742  0.57777125  0.14826032  1
  O  O152  1  0.35171606  0.94629008  0.18047513  1
  O  O153  1  0.14866825  0.03730856  0.17810635  1
  O  O154  1  0.64702614  0.45634514  0.17849826  1
  O  O155  1  0.85033053  0.55194143  0.18102887  1
  O  O156  1  0.47113129  0.14626812  0.18348538  1
  O  O157  1  0.03644130  0.84454472  0.19170965  1
  O  O158  1  0.97007607  0.35111476  0.18466809  1
  O  O159  1  0.53565291  0.65295744  0.19295252  1
  O  O160  1  0.78021253  0.18864034  0.20710235  1
  O  O161  1  0.72141593  0.80661548  0.21111334  1
  O  O162  1  0.28252244  0.31140005  0.20861691  1
  O  O163  1  0.21655140  0.69565290  0.21256961  1
  O  O164  1  0.93809448  0.01701207  0.22515754  1
  O  O165  1  0.56126892  0.97646638  0.22563287  1
  O  O166  1  0.05303930  0.52597063  0.22654298  1
  O  O167  1  0.43814731  0.48104239  0.22760935  1
  O  O168  1  0.09789720  0.20955575  0.24546290  1
  O  O169  1  0.40247594  0.78947762  0.24938893  1
  O  O170  1  0.59667734  0.28590052  0.24562085  1
  O  O171  1  0.90376641  0.71232706  0.24878268  1
  O  O172  1  0.30342656  0.10040144  0.25457267  1
  O  O173  1  0.19724796  0.90362337  0.25965619  1
  O  O174  1  0.80156854  0.39771322  0.25521327  1
  O  O175  1  0.69196266  0.59889257  0.26069293  1
  O  O176  1  0.19161980  0.40104918  0.28028416  1
  O  O177  1  0.30129110  0.59993910  0.28380876  1
  O  O178  1  0.69754583  0.09541610  0.28075380  1
  O  O179  1  0.80341040  0.90120183  0.28373085  1
  O  O180  1  0.40393706  0.28450581  0.29156742  1
  O  O181  1  0.09553514  0.71603749  0.29510981  1
  O  O182  1  0.90360838  0.21236179  0.29095128  1
  O  O183  1  0.59731874  0.78768421  0.29471978  1
  O  O184  1  0.94393902  0.52214499  0.30980714  1
  O  O185  1  0.54821874  0.47056962  0.31210084  1
  O  O186  1  0.05049576  0.02675237  0.31229621  1
  O  O187  1  0.44105248  0.97936221  0.31039822  1
  O  O188  1  0.71638953  0.30235003  0.33006652  1
  O  O189  1  0.78452864  0.69215780  0.33272068  1
  O  O190  1  0.21683673  0.19585523  0.33049935  1
  O  O191  1  0.28271651  0.80955670  0.33358860  1
  O  O192  1  0.03421716  0.34968310  0.35060619  1
  O  O193  1  0.46602406  0.64597014  0.35304817  1
  O  O194  1  0.53619577  0.14946517  0.35041058  1
  O  O195  1  0.96449078  0.85458016  0.35349220  1
  O  O196  1  0.34601444  0.44099729  0.36030086  1
  O  O197  1  0.15347767  0.55106637  0.35989929  1
  O  O198  1  0.65450980  0.94835555  0.36057898  1
  O  O199  1  0.84505850  0.05863695  0.36115447  1
  O  O200  1  0.84507043  0.44135971  0.38732183  1
  O  O201  1  0.65447171  0.55160962  0.38790301  1
  O  O202  1  0.15345757  0.94891064  0.38861221  1
  O  O203  1  0.34606075  0.05898735  0.38820295  1
  O  O204  1  0.96451562  0.64543927  0.39499508  1
  O  O205  1  0.53614748  0.35039089  0.39798933  1
  O  O206  1  0.46608053  0.85395329  0.39542321  1
  O  O207  1  0.03417453  0.15028125  0.39793428  1
  O  O208  1  0.28270152  0.69050568  0.41490802  1
  O  O209  1  0.21691058  0.30417965  0.41800770  1
  O  O210  1  0.78451431  0.80770098  0.41572417  1
  O  O211  1  0.71642933  0.19754963  0.41842005  1
  O  O212  1  0.44110368  0.52059521  0.43808383  1
  O  O213  1  0.05057131  0.47328596  0.43619112  1
  O  O214  1  0.54825735  0.02940981  0.43635743  1
  O  O215  1  0.94392928  0.97777974  0.43867247  1
  O  O216  1  0.59730196  0.71232247  0.45374876  1
  O  O217  1  0.90360433  0.28769297  0.45752110  1
  O  O218  1  0.09551896  0.78397882  0.45335599  1
  O  O219  1  0.40398982  0.21550901  0.45696884  1
  O  O220  1  0.80343169  0.59872900  0.46477136  1
  O  O221  1  0.69751235  0.40453803  0.46769214  1
  O  O222  1  0.30136170  0.90008717  0.46466184  1
  O  O223  1  0.19165491  0.09899113  0.46822670  1
  O  O224  1  0.69203862  0.90110790  0.48777737  1
  O  O225  1  0.80164932  0.10229149  0.49329174  1
  O  O226  1  0.19726159  0.59644956  0.48886634  1
  O  O227  1  0.30340291  0.39963851  0.49393256  1
  O  O228  1  0.90376456  0.78766566  0.49967151  1
  O  O229  1  0.59677987  0.21404749  0.50289786  1
  O  O230  1  0.40245382  0.71049889  0.49909880  1
  O  O231  1  0.09785830  0.29043452  0.50303703  1
  O  O232  1  0.43808737  0.01895569  0.52084200  1
  O  O233  1  0.05303674  0.97403755  0.52191555  1
  O  O234  1  0.56140951  0.52351245  0.52283141  1
  O  O235  1  0.93823185  0.48299963  0.52335336  1
  O  O236  1  0.21652169  0.80454437  0.53589083  1
  O  O237  1  0.28246546  0.18868641  0.53990585  1
  O  O238  1  0.72146325  0.69333120  0.53734313  1
  O  O239  1  0.78041171  0.31138816  0.54134631  1
  O  O240  1  0.53568780  0.84708169  0.55551637  1
  O  O241  1  0.97018923  0.14890776  0.56382328  1
  O  O242  1  0.03647576  0.65546960  0.55680065  1
  O  O243  1  0.47117056  0.35379183  0.56496536  1
  O  O244  1  0.85038008  0.94807073  0.56744662  1
  O  O245  1  0.64703177  0.04361722  0.56997269  1
  O  O246  1  0.14874013  0.46267755  0.57041192  1
  O  O247  1  0.35177979  0.55369883  0.56801069  1
  O  O248  1  0.34570283  0.92223810  0.60024507  1
  O  O249  1  0.15916022  0.04980248  0.60225013  1
  O  O250  1  0.65802912  0.45600512  0.60690312  1
  O  O251  1  0.85102988  0.58187762  0.60548307  1
  O  O252  1  0.44926509  0.13053505  0.60404509  1
  O  O253  1  0.04452942  0.84608567  0.60505299  1
  O  O254  1  0.95645617  0.37014052  0.60679693  1
  O  O255  1  0.54185742  0.65955673  0.60413889  1
  O  O256  1  0.77561957  0.17373238  0.61932140  1
  O  O257  1  0.72935772  0.81078542  0.62013703  1
  O  O258  1  0.27501849  0.33031944  0.61700639  1
  O  O259  1  0.23389196  0.69231172  0.62006591  1
  O  O260  1  0.85533823  0.05399114  0.06288998  1
  O  O261  1  0.31792570  0.43683523  0.07159695  1
  O  O262  1  0.54323823  0.22576524  0.09070254  1
  O  O263  1  0.06061064  0.27816925  0.09052448  1
  O  O264  1  0.43952157  0.02149195  0.10276324  1
  O  O265  1  0.05642580  0.95446227  0.09908697  1
  O  O266  1  0.53965290  0.54162327  0.09953153  1
  O  O267  1  0.92826547  0.48254988  0.10340700  1
  O  O268  1  0.92828193  0.01744032  0.64505200  1
  O  O269  1  0.53968133  0.95847944  0.64891904  1
  O  O270  1  0.05650411  0.54551604  0.64943720  1
  O  O271  1  0.43969033  0.47853703  0.64570839  1
  O  O272  1  0.06065431  0.22184716  0.65795310  1
  O  O273  1  0.54344146  0.27423762  0.65771329  1
  O  O274  1  0.31802323  0.06319782  0.67688069  1
  O  O275  1  0.85528752  0.44605917  0.68560462  1
