# generated using pymatgen
data_Li7La3Zr2O12
_symmetry_space_group_name_H-M   'P 1'
_cell_length_a   11.29297700
_cell_length_b   11.29297344
_cell_length_c   40.46538200
_cell_angle_alpha   90.00000000
_cell_angle_beta   90.00000000
_cell_angle_gamma   108.44555555
_symmetry_Int_Tables_number   1
_chemical_formula_structural   Li7La3Zr2O12
_chemical_formula_sum   'Li84 La36 Zr24 O144'
_cell_volume   4895.47505537
_cell_formula_units_Z   12
loop_
 _symmetry_equiv_pos_site_id
 _symmetry_equiv_pos_as_xyz
  1  'x, y, z'
loop_
 _atom_site_type_symbol
 _atom_site_label
 _atom_site_symmetry_multiplicity
 _atom_site_fract_x
 _atom_site_fract_y
 _atom_site_fract_z
 _atom_site_occupancy
  Li  Li0  1  0.13708580  0.56023417  0.06064199  1
  Li  Li1  1  0.15414781  0.07337796  0.05664592  1
  Li  Li2  1  0.86833171  0.04579953  0.06449748  1
  Li  Li3  1  0.89497722  0.57863717  0.07395571  1
  Li  Li4  1  0.01820021  0.81907990  0.07961798  1
  Li  Li5  1  0.66235318  0.99998221  0.09399842  1
  Li  Li6  1  0.30979427  0.55047780  0.09413659  1
  Li  Li7  1  0.12643675  0.99909061  0.11314417  1
  Li  Li8  1  0.79087288  0.54924477  0.12656865  1
  Li  Li9  1  0.45342039  0.70299790  0.13173861  1
  Li  Li10  1  0.52215553  0.96572803  0.13639194  1
  Li  Li11  1  0.59601040  0.56176030  0.15679507  1
  Li  Li12  1  0.29496478  0.00239202  0.15654913  1
  Li  Li13  1  0.33242284  0.49074705  0.15422632  1
  Li  Li14  1  0.68522878  0.14501517  0.16910111  1
  Li  Li15  1  0.18250862  0.15476042  0.16733070  1
  Li  Li16  1  0.75689947  0.39447686  0.17120142  1
  Li  Li17  1  0.15042824  0.34918295  0.19010356  1
  Li  Li18  1  0.89905238  0.25878332  0.19396091  1
  Li  Li19  1  0.75069496  0.59840220  0.19844782  1
  Li  Li20  1  0.19073287  0.94397289  0.21492433  1
  Li  Li21  1  0.73983492  0.10808986  0.23546047  1
  Li  Li22  1  0.18636943  0.48764699  0.24434269  1
  Li  Li23  1  0.00257456  0.81532776  0.24539660  1
  Li  Li24  1  0.77207562  0.72920168  0.24795008  1
  Li  Li25  1  0.16122909  0.71041677  0.25854399  1
  Li  Li26  1  0.24419174  0.93992804  0.27323505  1
  Li  Li27  1  0.73462142  0.92212388  0.26942449  1
  Li  Li28  1  0.58299273  0.06870090  0.28233661  1
  Li  Li29  1  0.60058629  0.57278025  0.27975412  1
  Li  Li30  1  0.36780321  0.48976138  0.29120725  1
  Li  Li31  1  0.39242161  0.10826601  0.30435079  1
  Li  Li32  1  0.48132240  0.34009002  0.30676118  1
  Li  Li33  1  0.15153852  0.52246684  0.30567707  1
  Li  Li34  1  0.77541195  0.07914908  0.31581170  1
  Li  Li35  1  0.61481274  0.52689267  0.34034160  1
  Li  Li36  1  0.26171894  0.08121384  0.35559125  1
  Li  Li37  1  0.92387688  0.24037102  0.35755265  1
  Li  Li38  1  0.01260928  0.48673419  0.36027624  1
  Li  Li39  1  0.05609515  0.08905528  0.38036439  1
  Li  Li40  1  0.80743651  0.52324144  0.38205625  1
  Li  Li41  1  0.80819768  0.02373616  0.38182246  1
  Li  Li42  1  0.16807568  0.66246691  0.39579658  1
  Li  Li43  1  0.66842391  0.66067343  0.39553953  1
  Li  Li44  1  0.23632417  0.90993412  0.39788243  1
  Li  Li45  1  0.63245555  0.86701529  0.41733799  1
  Li  Li46  1  0.38673950  0.77824335  0.42003760  1
  Li  Li47  1  0.22770379  0.11733987  0.42210310  1
  Li  Li48  1  0.67188328  0.46827829  0.43712821  1
  Li  Li49  1  0.22322452  0.63046459  0.46118851  1
  Li  Li50  1  0.66666706  0.00519843  0.47183680  1
  Li  Li51  1  0.48729546  0.33446716  0.47092500  1
  Li  Li52  1  0.25261625  0.24726439  0.47365353  1
  Li  Li53  1  0.63982019  0.21745106  0.48872451  1
  Li  Li54  1  0.71796844  0.45364889  0.49797518  1
  Li  Li55  1  0.21343800  0.44039586  0.49551578  1
  Li  Li56  1  0.06841861  0.59143491  0.50873564  1
  Li  Li57  1  0.08293138  0.09783236  0.50601471  1
  Li  Li58  1  0.84877120  0.01342597  0.51863847  1
  Li  Li59  1  0.87220112  0.62799163  0.52990272  1
  Li  Li60  1  0.96379510  0.86368939  0.53185999  1
  Li  Li61  1  0.62589523  0.03711210  0.53460460  1
  Li  Li62  1  0.25931197  0.59684760  0.54334250  1
  Li  Li63  1  0.09562255  0.04988645  0.56629510  1
  Li  Li64  1  0.73866301  0.59634905  0.58092557  1
  Li  Li65  1  0.40940951  0.76850009  0.58359138  1
  Li  Li66  1  0.48872004  0.00991217  0.58956947  1
  Li  Li67  1  0.53448510  0.61430174  0.60587233  1
  Li  Li68  1  0.28043842  0.04793871  0.61062866  1
  Li  Li69  1  0.29544477  0.54911966  0.60699042  1
  Li  Li70  1  0.64862202  0.19277982  0.62602469  1
  Li  Li71  1  0.12201806  0.19037956  0.62515930  1
  Li  Li72  1  0.73729313  0.43247369  0.62738409  1
  Li  Li73  1  0.12136215  0.39766272  0.64109021  1
  Li  Li74  1  0.89571152  0.31881718  0.64854729  1
  Li  Li75  1  0.70966024  0.63366129  0.64401052  1
  Li  Li76  1  0.11514012  0.99536136  0.65791446  1
  Li  Li77  1  0.72341371  0.20667687  0.68345080  1
  Li  Li78  1  0.12718611  0.53238008  0.69335213  1
  Li  Li79  1  0.93586537  0.86583996  0.69236047  1
  Li  Li80  1  0.70355207  0.74852828  0.70136530  1
  Li  Li81  1  0.10924057  0.76711692  0.70499605  1
  Li  Li82  1  0.19963661  0.00763363  0.71936414  1
  Li  Li83  1  0.69970143  0.99716704  0.71452913  1
  La  La84  1  0.49769627  0.78927657  0.05258736  1
  La  La85  1  0.40952955  0.10886918  0.08275408  1
  La  La86  1  0.55806246  0.46526886  0.08194141  1
  La  La87  1  0.91243730  0.10039380  0.13455821  1
  La  La88  1  0.03537334  0.46424217  0.13156228  1
  La  La89  1  0.46442713  0.27927175  0.16273430  1
  La  La90  1  0.96856250  0.79370281  0.16518661  1
  La  La91  1  0.65324054  0.84685153  0.19030037  1
  La  La92  1  0.27592236  0.72075922  0.18782991  1
  La  La93  1  0.64883086  0.34779102  0.24597371  1
  La  La94  1  0.27120969  0.22623146  0.24744413  1
  La  La95  1  0.45187958  0.78503763  0.27503005  1
  La  La96  1  0.95696729  0.29383748  0.27564084  1
  La  La97  1  0.89431654  0.60831593  0.30353344  1
  La  La98  1  0.01482589  0.98584419  0.30558727  1
  La  La99  1  0.38848170  0.61187824  0.36038761  1
  La  La100  1  0.51308223  0.98685092  0.36040675  1
  La  La101  1  0.94827584  0.80270658  0.38884977  1
  La  La102  1  0.45332649  0.30753230  0.38861359  1
  La  La103  1  0.13221405  0.36743748  0.41719826  1
  La  La104  1  0.75718781  0.24334654  0.41739972  1
  La  La105  1  0.13140880  0.87109590  0.47192112  1
  La  La106  1  0.75308604  0.74739989  0.47375648  1
  La  La107  1  0.93099802  0.30656126  0.50274755  1
  La  La108  1  0.43840386  0.81073369  0.50127282  1
  La  La109  1  0.37254642  0.12753798  0.53011296  1
  La  La110  1  0.49406287  0.50317016  0.53146212  1
  La  La111  1  0.86414496  0.12955680  0.58951333  1
  La  La112  1  0.99050302  0.50831445  0.58657880  1
  La  La113  1  0.42690247  0.32208630  0.61461461  1
  La  La114  1  0.93566718  0.82286154  0.61057763  1
  La  La115  1  0.61372646  0.89392281  0.64470336  1
  La  La116  1  0.23410595  0.76350278  0.64190911  1
  La  La117  1  0.61795535  0.42086597  0.69759641  1
  La  La118  1  0.23547845  0.26356127  0.69551676  1
  La  La119  1  0.40412234  0.80576397  0.72304895  1
  Zr  Zr120  1  0.72496989  0.27575901  0.10496465  1
  Zr  Zr121  1  0.20481556  0.27615644  0.09919487  1
  Zr  Zr122  1  0.73576509  0.78353323  0.10525356  1
  Zr  Zr123  1  0.23505783  0.78031382  0.09852982  1
  Zr  Zr124  1  0.96245706  0.04141408  0.21983012  1
  Zr  Zr125  1  0.96661885  0.53973942  0.21827122  1
  Zr  Zr126  1  0.45784701  0.03282327  0.21894427  1
  Zr  Zr127  1  0.46201785  0.53546273  0.21844915  1
  Zr  Zr128  1  0.20210205  0.79643414  0.33243924  1
  Zr  Zr129  1  0.70201798  0.79702111  0.33240100  1
  Zr  Zr130  1  0.20218067  0.29848504  0.33247630  1
  Zr  Zr131  1  0.70348245  0.29791882  0.33191502  1
  Zr  Zr132  1  0.44244130  0.55646446  0.44560327  1
  Zr  Zr133  1  0.44468670  0.05793883  0.44510992  1
  Zr  Zr134  1  0.94229703  0.55658766  0.44548332  1
  Zr  Zr135  1  0.94168921  0.05705827  0.44563157  1
  Zr  Zr136  1  0.68081081  0.31616880  0.55973443  1
  Zr  Zr137  1  0.17957967  0.31562537  0.55893189  1
  Zr  Zr138  1  0.68065834  0.81777227  0.55897125  1
  Zr  Zr139  1  0.18834960  0.82012686  0.55735308  1
  Zr  Zr140  1  0.91369199  0.09443230  0.67940635  1
  Zr  Zr141  1  0.92076113  0.58478842  0.67303875  1
  Zr  Zr142  1  0.41446985  0.07141086  0.67808848  1
  Zr  Zr143  1  0.41751182  0.56924358  0.67177850  1
  O  O144  1  0.70876233  0.88929804  0.06406995  1
  O  O145  1  0.29729801  0.67909795  0.06031344  1
  O  O146  1  0.59304450  0.27961727  0.06843372  1
  O  O147  1  0.29415475  0.22199081  0.06003241  1
  O  O148  1  0.19322542  0.93127579  0.07568169  1
  O  O149  1  0.75596665  0.62633927  0.08280635  1
  O  O150  1  0.79467591  0.14295107  0.08843178  1
  O  O151  1  0.15159760  0.42484811  0.08514689  1
  O  O152  1  0.86637869  0.43723647  0.09699506  1
  O  O153  1  0.05006780  0.11822419  0.08721754  1
  O  O154  1  0.53417967  0.67283536  0.09354974  1
  O  O155  1  0.43762831  0.90198765  0.09210928  1
  O  O156  1  0.05973557  0.66780388  0.08630078  1
  O  O157  1  0.92408176  0.87539910  0.11180296  1
  O  O158  1  0.38088212  0.41089279  0.11692154  1
  O  O159  1  0.56145358  0.14348965  0.12867273  1
  O  O160  1  0.63871039  0.41531341  0.13069162  1
  O  O161  1  0.28541493  0.14137286  0.12797260  1
  O  O162  1  0.68092371  0.92112421  0.13430557  1
  O  O163  1  0.27044140  0.63983557  0.13121197  1
  O  O164  1  0.10378100  0.28092068  0.14498072  1
  O  O165  1  0.82906226  0.27522391  0.15026417  1
  O  O166  1  0.18746948  0.84316007  0.14528595  1
  O  O167  1  0.73750217  0.70553192  0.15382436  1
  O  O168  1  0.88821989  0.55674832  0.17116696  1
  O  O169  1  0.03947089  0.01601351  0.17339537  1
  O  O170  1  0.46830022  0.63739763  0.17429380  1
  O  O171  1  0.45987258  0.91170480  0.17848109  1
  O  O172  1  0.81245005  0.07477614  0.19404747  1
  O  O173  1  0.11336829  0.50247413  0.19249431  1
  O  O174  1  0.31660316  0.09708132  0.19736511  1
  O  O175  1  0.60005460  0.46221799  0.19767825  1
  O  O176  1  0.32834785  0.37461109  0.19663095  1
  O  O177  1  0.59254095  0.19721053  0.20095480  1
  O  O178  1  0.07773440  0.73486079  0.21357056  1
  O  O179  1  0.86233905  0.84635672  0.21517156  1
  O  O180  1  0.06669785  0.23250799  0.22404114  1
  O  O181  1  0.85402727  0.35210008  0.22615376  1
  O  O182  1  0.31670461  0.87456045  0.23844927  1
  O  O183  1  0.59813114  0.69267073  0.23929177  1
  O  O184  1  0.59468167  0.96548901  0.24174424  1
  O  O185  1  0.33370678  0.61764456  0.23833154  1
  O  O186  1  0.82058672  0.58263274  0.24425671  1
  O  O187  1  0.10650713  0.00307648  0.24796725  1
  O  O188  1  0.45336001  0.14809763  0.26036850  1
  O  O189  1  0.46131728  0.42240093  0.26095097  1
  O  O190  1  0.87764582  0.06393491  0.26557566  1
  O  O191  1  0.04804487  0.53327047  0.26562269  1
  O  O192  1  0.19522108  0.38045261  0.28503250  1
  O  O193  1  0.72569027  0.21279527  0.28593518  1
  O  O194  1  0.09125313  0.79974921  0.29009428  1
  O  O195  1  0.81783824  0.79459222  0.29102339  1
  O  O196  1  0.66574290  0.44303065  0.30421770  1
  O  O197  1  0.24153717  0.14983744  0.30711633  1
  O  O198  1  0.28405032  0.66756535  0.31146917  1
  O  O199  1  0.63256988  0.93234718  0.30981071  1
  O  O200  1  0.36125121  0.93413758  0.31241057  1
  O  O201  1  0.54240100  0.65406013  0.31381900  1
  O  O202  1  0.01281980  0.18984482  0.32500039  1
  O  O203  1  0.89567350  0.40154520  0.32647176  1
  O  O204  1  0.51046049  0.19618619  0.33645478  1
  O  O205  1  0.39443612  0.40909860  0.33702869  1
  O  O206  1  0.86575748  0.93181276  0.35133066  1
  O  O207  1  0.04200519  0.66168370  0.35224022  1
  O  O208  1  0.12873415  0.92983335  0.35520930  1
  O  O209  1  0.76800565  0.65728620  0.35432509  1
  O  O210  1  0.16550924  0.44566054  0.35865152  1
  O  O211  1  0.74064906  0.14928643  0.35814465  1
  O  O212  1  0.58648444  0.80270864  0.37331964  1
  O  O213  1  0.31241508  0.79776131  0.37551366  1
  O  O214  1  0.67823130  0.37344466  0.37848795  1
  O  O215  1  0.21498831  0.21882814  0.37957703  1
  O  O216  1  0.36458940  0.06997825  0.39798749  1
  O  O217  1  0.51824617  0.53183792  0.39895306  1
  O  O218  1  0.94342136  0.16661521  0.40236130  1
  O  O219  1  0.94817871  0.44144384  0.40442583  1
  O  O220  1  0.29401287  0.59430089  0.41939048  1
  O  O221  1  0.59179522  0.02024008  0.41917728  1
  O  O222  1  0.80230196  0.62214322  0.42336785  1
  O  O223  1  0.07569776  0.98411278  0.42291269  1
  O  O224  1  0.80705182  0.89599984  0.42600693  1
  O  O225  1  0.07779777  0.72066854  0.42677520  1
  O  O226  1  0.55492507  0.24959746  0.44000983  1
  O  O227  1  0.34040449  0.36392222  0.44101571  1
  O  O228  1  0.54600697  0.74913908  0.45076171  1
  O  O229  1  0.33455671  0.86823650  0.45209804  1
  O  O230  1  0.80031283  0.39656588  0.46400716  1
  O  O231  1  0.07813148  0.21633135  0.46592301  1
  O  O232  1  0.07759774  0.48776769  0.46811801  1
  O  O233  1  0.81210653  0.13794704  0.46653077  1
  O  O234  1  0.29623656  0.09716220  0.47067001  1
  O  O235  1  0.58822121  0.51931035  0.47318067  1
  O  O236  1  0.93753259  0.67281990  0.48654931  1
  O  O237  1  0.94504461  0.94640999  0.48797675  1
  O  O238  1  0.35831052  0.58047842  0.49140146  1
  O  O239  1  0.52451369  0.04877732  0.49258926  1
  O  O240  1  0.67415917  0.89939726  0.51185573  1
  O  O241  1  0.21033769  0.73509347  0.51188031  1
  O  O242  1  0.56788876  0.31484643  0.51684206  1
  O  O243  1  0.29412996  0.30894919  0.51748592  1
  O  O244  1  0.15014470  0.96650391  0.53060370  1
  O  O245  1  0.72111586  0.66938181  0.53401494  1
  O  O246  1  0.75769090  0.18582632  0.53811183  1
  O  O247  1  0.11279968  0.45331492  0.53616661  1
  O  O248  1  0.83758279  0.45333383  0.53854114  1
  O  O249  1  0.02016325  0.17396768  0.54032891  1
  O  O250  1  0.49190939  0.70681664  0.55174486  1
  O  O251  1  0.37987981  0.92352415  0.55375832  1
  O  O252  1  0.99506930  0.71932408  0.56081797  1
  O  O253  1  0.87247557  0.92934409  0.56264346  1
  O  O254  1  0.34450191  0.45151120  0.57673284  1
  O  O255  1  0.52160697  0.18481390  0.58220331  1
  O  O256  1  0.60276558  0.44979842  0.58056810  1
  O  O257  1  0.24580128  0.17843556  0.58165431  1
  O  O258  1  0.63849437  0.96174304  0.58557495  1
  O  O259  1  0.22366998  0.67230076  0.58477251  1
  O  O260  1  0.06104532  0.32098415  0.59930504  1
  O  O261  1  0.79327971  0.32011072  0.60170943  1
  O  O262  1  0.16089156  0.89398792  0.60390795  1
  O  O263  1  0.69553882  0.74392927  0.60728953  1
  O  O264  1  0.84937234  0.59530539  0.62051651  1
  O  O265  1  0.98434747  0.03865263  0.62817337  1
  O  O266  1  0.42410870  0.68852880  0.62923581  1
  O  O267  1  0.42039644  0.95792408  0.63540719  1
  O  O268  1  0.76777059  0.11667187  0.64497086  1
  O  O269  1  0.06767656  0.54241615  0.64485274  1
  O  O270  1  0.27909531  0.13861654  0.65130169  1
  O  O271  1  0.55686529  0.50374302  0.64842356  1
  O  O272  1  0.29040016  0.41701038  0.64801332  1
  O  O273  1  0.55216384  0.23324007  0.66310981  1
  O  O274  1  0.02343263  0.78524562  0.66419319  1
  O  O275  1  0.78650516  0.90438251  0.68372079  1
  O  O276  1  0.04541655  0.26936326  0.67060637  1
  O  O277  1  0.79830988  0.39865298  0.67238423  1
  O  O278  1  0.26943918  0.89231713  0.69767264  1
  O  O279  1  0.53854680  0.73080551  0.69613491  1
  O  O280  1  0.53565138  0.98270030  0.70018220  1
  O  O281  1  0.28608220  0.64654016  0.69177575  1
  O  O282  1  0.76115851  0.62053236  0.69129980  1
  O  O283  1  0.05803300  0.03504654  0.70073773  1
  O  O284  1  0.34746924  0.14339884  0.71782506  1
  O  O285  1  0.41952909  0.44272716  0.70898951  1
  O  O286  1  0.81691193  0.14679328  0.71371363  1
  O  O287  1  0.02345728  0.60498622  0.71363872  1
