data_image0
_chemical_formula_structural       Li84La32Zr20O130Li2Co2O4Li2Co2O4Li2Co2O4Li2Co2O4Li2Co2O4Li2Co2O4Li2Co2O4Li2Co2O4Li2Co2O4Li2Co2O4Li2Co2O4Li2Co2O4Li2Co2O4Li2Co2O4Li2Co2O4Li2Co2O4Li2Co2O4Li2Co2O4Li2Co2O4Li2Co2O4Li2Co2O4Li2Co2O4Li2Co2O4Li2Co2O4
_chemical_formula_sum              "Li132 La32 Zr20 O226 Co48"
_cell_length_a       12.704539
_cell_length_b       13.204542
_cell_length_c       82.91657194068276
_cell_angle_alpha    90.0
_cell_angle_beta     90.0
_cell_angle_gamma    90.0

_space_group_name_H-M_alt    "P 1"
_space_group_IT_number       1

loop_
  _space_group_symop_operation_xyz
  'x, y, z'

loop_
  _atom_site_type_symbol
  _atom_site_label
  _atom_site_symmetry_multiplicity
  _atom_site_fract_x
  _atom_site_fract_y
  _atom_site_fract_z
  _atom_site_occupancy
  Li  Li1       1.0  0.9256964400000001  0.92946307  0.18675255676542835  1.0000
  Li  Li2       1.0  0.5722883100000001  0.04386193  0.18452533575482855  1.0000
  Li  Li3       1.0  0.08070752  0.52505969  0.18093991692755482  1.0000
  Li  Li4       1.0  0.36943852000000005  0.57026055  0.1845885990966704  1.0000
  Li  Li5       1.0  0.59511226  0.7024476800000002  0.19471700181832746  1.0000
  Li  Li6       1.0  0.90046328  0.33939654  0.19397093015439884  1.0000
  Li  Li7       1.0  0.09527897000000002  0.80585725  0.19529366797034592  1.0000
  Li  Li8       1.0  0.40463088000000014  0.1613844000000001  0.19724949568892713  1.0000
  Li  Li9       1.0  0.7001438300000001  0.89341598  0.20322817302912202  1.0000
  Li  Li10      1.0  0.80385039  0.08063631  0.20355376519070675  1.0000
  Li  Li11      1.0  0.20511439  0.64932579  0.19670882657788877  1.0000
  Li  Li12      1.0  0.25099967000000006  0.46875236000000015  0.1979888735296982  1.0000
  Li  Li13      1.0  0.8671094000000003  0.24717670000000008  0.21740843321807599  1.0000
  Li  Li14      1.0  0.63139688  0.75244174  0.21958500749678533  1.0000
  Li  Li15      1.0  0.36701867  0.27167298  0.21562941065889538  1.0000
  Li  Li16      1.0  0.12996874  0.74052299  0.2190182152134244  1.0000
  Li  Li17      1.0  0.32194271  0.10544032000000005  0.22684587227779934  1.0000
  Li  Li18      1.0  0.1818126  0.89983758  0.22950667273692243  1.0000
  Li  Li19      1.0  0.8113086400000004  0.41586974000000004  0.2288262158839449  1.0000
  Li  Li20      1.0  0.6894289800000002  0.588815  0.23078058975784038  1.0000
  Li  Li21      1.0  0.44080599  0.3353198  0.24226950340526232  1.0000
  Li  Li22      1.0  0.05974076  0.66856197  0.24429776251001006  1.0000
  Li  Li23      1.0  0.9490306100000001  0.15780255  0.24253179770098887  1.0000
  Li  Li24      1.0  0.54941868  0.8451088  0.24477250609395085  1.0000
  Li  Li25      1.0  0.35159462  0.94258694  0.24469320826454535  1.0000
  Li  Li26      1.0  0.15547021000000003  0.06266121  0.2444243122097047  1.0000
  Li  Li27      1.0  0.61427915  0.4331213300000002  0.24499794408429193  1.0000
  Li  Li28      1.0  0.8907883000000001  0.5686730600000001  0.24516996191343426  1.0000
  Li  Li29      1.0  0.3774260300000001  0.43206775  0.2675296750567083  1.0000
  Li  Li30      1.0  0.14321602000000003  0.56779466  0.26795567840165796  1.0000
  Li  Li31      1.0  0.64902011  0.9342960900000004  0.2693950882126403  1.0000
  Li  Li32      1.0  0.8665907200000004  0.06788736  0.26870603871560955  1.0000
  Li  Li33      1.0  0.05437522000000001  0.16718507  0.2694509403989862  1.0000
  Li  Li34      1.0  0.4463195200000001  0.8384749200000001  0.2709395622771823  1.0000
  Li  Li35      1.0  0.55649702  0.32846529  0.2701751967206243  1.0000
  Li  Li36      1.0  0.9459091600000004  0.66653366  0.2711333916126133  1.0000
  Li  Li37      1.0  0.19502683  0.4097556400000001  0.2833470065578833  1.0000
  Li  Li38      1.0  0.31042144  0.58696976  0.28462573776107214  1.0000
  Li  Li39      1.0  0.6934561500000002  0.09309244000000003  0.2844245739901814  1.0000
  Li  Li40      1.0  0.81223358  0.91187275  0.28542079900410955  1.0000
  Li  Li41      1.0  0.3760608800000001  0.7498960700000001  0.2967381551426064  1.0000
  Li  Li42      1.0  0.12598778  0.24998676  0.2967446034616481  1.0000
  Li  Li43      1.0  0.8759963000000003  0.74986328  0.2967542356621917  1.0000
  Li  Li44      1.0  0.6263115500000002  0.25007519  0.2967495403959769  1.0000
  Li  Li45      1.0  0.8121413300000002  0.58813679  0.3081297417521184  1.0000
  Li  Li46      1.0  0.6932182400000002  0.4071120300000001  0.30908789061208564  1.0000
  Li  Li47      1.0  0.31072370000000005  0.91265943  0.3087984489315535  1.0000
  Li  Li48      1.0  0.19487553  0.09047118  0.31016027944194097  1.0000
  Li  Li49      1.0  0.9458629900000001  0.8335112  0.32229112497616796  1.0000
  Li  Li50      1.0  0.55621035  0.17156714  0.3233226910747667  1.0000
  Li  Li51      1.0  0.44636169  0.6618563700000001  0.32262334574887935  1.0000
  Li  Li52      1.0  0.05414825  0.33286582  0.32401109612349355  1.0000
  Li  Li53      1.0  0.8653932300000002  0.43239699  0.32486423443392637  1.0000
  Li  Li54      1.0  0.64846395  0.5659631000000002  0.3241099767421363  1.0000
  Li  Li55      1.0  0.14427708  0.9326933  0.32556350303977755  1.0000
  Li  Li56      1.0  0.37645617  0.067734  0.32592812268377186  1.0000
  Li  Li57      1.0  0.8899381100000001  0.93131241  0.34825981383382776  1.0000
  Li  Li58      1.0  0.6135986200000001  0.06729996000000002  0.3485563521177075  1.0000
  Li  Li59      1.0  0.1551022  0.43712073  0.34899852804628584  1.0000
  Li  Li60      1.0  0.3518922400000001  0.55792817  0.34882614963297337  1.0000
  Li  Li61      1.0  0.54965648  0.65535321  0.3488103299615111  1.0000
  Li  Li62      1.0  0.9488320800000002  0.3421734600000001  0.35091727697137653  1.0000
  Li  Li63      1.0  0.05929742000000001  0.8321821100000001  0.3490860962955925  1.0000
  Li  Li64      1.0  0.4406866400000002  0.16487641  0.35119155110075423  1.0000
  Li  Li65      1.0  0.68924126  0.91159011  0.3627377631072044  1.0000
  Li  Li66      1.0  0.8107833100000001  0.08400671  0.3646453876270477  1.0000
  Li  Li67      1.0  0.18236636000000006  0.5991991300000001  0.3640770072389375  1.0000
  Li  Li68      1.0  0.32172010000000006  0.39448203  0.36659155245707087  1.0000
  Li  Li69      1.0  0.8668207600000001  0.25267518  0.37601549646242843  1.0000
  Li  Li70      1.0  0.6311227300000001  0.7476762700000004  0.373946882618645  1.0000
  Li  Li71      1.0  0.3669640000000002  0.22818658  0.37789457345680555  1.0000
  Li  Li72      1.0  0.12996112  0.75967032  0.37428939154820956  1.0000
  Li  Li73      1.0  0.24863522  0.030258480000000004  0.3955994058123314  1.0000
  Li  Li74      1.0  0.19813026000000009  0.8492242400000001  0.3969783563987945  1.0000
  Li  Li75      1.0  0.8032207700000001  0.41867817000000007  0.3898672951604441  1.0000
  Li  Li76      1.0  0.7002181600000003  0.60727147  0.390288802711273  1.0000
  Li  Li77      1.0  0.40479397000000006  0.3383198400000001  0.39624130317512  1.0000
  Li  Li78      1.0  0.09352882000000003  0.69137669  0.3976442939849231  1.0000
  Li  Li79      1.0  0.9009095000000004  0.16109404  0.3993432553503383  1.0000
  Li  Li80      1.0  0.5962833800000001  0.79773664  0.39884479760321134  1.0000
  Li  Li81      1.0  0.36247187000000014  0.92683311  0.4089487458133329  1.0000
  Li  Li82      1.0  0.0766609  0.97557608  0.41275008167445665  1.0000
  Li  Li83      1.0  0.5720026  0.4562878000000001  0.4089718193642169  1.0000
  Li  Li84      1.0  0.92512552  0.5692088200000001  0.40668688187039176  1.0000
  La  La1       1.0  0.2489454000000001  0.9901436700000003  0.19772426612488053  1.0000
  La  La2       1.0  0.7466803300000002  0.51449486  0.19810684976534867  1.0000
  La  La3       1.0  0.8796641100000003  0.74242222  0.2182088341756322  1.0000
  La  La4       1.0  0.37880175000000005  0.75561001  0.21871576948675805  1.0000
  La  La5       1.0  0.62290236  0.26671252  0.21676225487726802  1.0000
  La  La6       1.0  0.12546944  0.24442082  0.2174442538029729  1.0000
  La  La7       1.0  0.74989785  0.998697  0.23768599910318292  1.0000
  La  La8       1.0  0.25048002  0.50136876  0.23586586227660827  1.0000
  La  La9       1.0  0.50149743  0.12008756  0.25668993950350943  1.0000
  La  La10      1.0  0.0007995600000000003  0.3785651600000001  0.25551661779404317  1.0000
  La  La11      1.0  0.49902775  0.62341216  0.25644476911986036  1.0000
  La  La12      1.0  0.00023617  0.8808649700000002  0.25688254515436326  1.0000
  La  La13      1.0  0.7504001200000002  0.4972297700000001  0.2756177697919341  1.0000
  La  La14      1.0  0.24979226000000004  0.0034320500000000003  0.2768488079846257  1.0000
  La  La15      1.0  0.37749989  0.25006692  0.29674665572261616  1.0000
  La  La16      1.0  0.8776399000000003  0.25013604  0.29677491171194476  1.0000
  La  La17      1.0  0.12353155000000002  0.75016306  0.2967675964564941  1.0000
  La  La18      1.0  0.6243769500000002  0.75016353  0.2967513855128473  1.0000
  La  La19      1.0  0.24998467000000005  0.49690924  0.3166603001160581  1.0000
  La  La20      1.0  0.75014194  0.0030688900000000003  0.31789636347112005  1.0000
  La  La21      1.0  0.00040219  0.61920178  0.33660546493636856  1.0000
  La  La22      1.0  0.4990355  0.8768680700000003  0.3371556243158835  1.0000
  La  La23      1.0  0.00064373  0.12145003000000003  0.3379708744364442  1.0000
  La  La24      1.0  0.5014025700000001  0.38004782  0.33683050781852314  1.0000
  La  La25      1.0  0.25084359  0.9990878800000004  0.35767636969970035  1.0000
  La  La26      1.0  0.7496366300000001  0.50159655  0.3558421010424596  1.0000
  La  La27      1.0  0.8794481100000001  0.75740053  0.3752595279138313  1.0000
  La  La28      1.0  0.37825078  0.7448779900000003  0.37491762890855457  1.0000
  La  La29      1.0  0.62283944  0.2335789  0.37676625572056816  1.0000
  La  La30      1.0  0.12536929  0.2556693  0.37602353672222105  1.0000
  La  La31      1.0  0.74712781  0.9858918800000002  0.39539969588612645  1.0000
  La  La32      1.0  0.24870925  0.50890094  0.3957978767099519  1.0000
  Zr  Zr1       1.0  0.9988538000000003  0.9946219  0.21568006506278947  1.0000
  Zr  Zr2       1.0  0.50607582  0.9962761600000003  0.21403815655228675  1.0000
  Zr  Zr3       1.0  0.49536823  0.50888644  0.21482960428161965  1.0000
  Zr  Zr4       1.0  0.0073327500000000025  0.5005797700000001  0.2146291194830492  1.0000
  Zr  Zr5       1.0  0.7513766600000004  0.24878123000000008  0.2561560140836521  1.0000
  Zr  Zr6       1.0  0.7511731200000001  0.7507024600000001  0.2575230040164733  1.0000
  Zr  Zr7       1.0  0.25261028  0.25069021  0.2565942044063503  1.0000
  Zr  Zr8       1.0  0.25196382  0.75242137  0.25784293040338546  1.0000
  Zr  Zr9       1.0  0.50222249  0.49797349  0.2964992067538923  1.0000
  Zr  Zr10      1.0  0.0015034900000000003  0.49682078000000013  0.2960843585022047  1.0000
  Zr  Zr11      1.0  0.00138616  0.00329774  0.2974665888702151  1.0000
  Zr  Zr12      1.0  0.5021892000000001  0.00218029  0.29699782177709344  1.0000
  Zr  Zr13      1.0  0.2521489  0.7479424  0.33569562668318975  1.0000
  Zr  Zr14      1.0  0.25256488  0.24937337000000007  0.3368679625401909  1.0000
  Zr  Zr15      1.0  0.7510711200000002  0.7493258100000003  0.3359548905374868  1.0000
  Zr  Zr16      1.0  0.7511215000000002  0.25136278  0.3373480496746522  1.0000
  Zr  Zr17      1.0  0.007152710000000001  0.99940028  0.37878148009116736  1.0000
  Zr  Zr18      1.0  0.49583393  0.99156145  0.3788686187082713  1.0000
  Zr  Zr19      1.0  0.50569803  0.50391433  0.37946077079959467  1.0000
  Zr  Zr20      1.0  0.9986543400000001  0.50454254  0.37775794274435565  1.0000
  O   O1        1.0  0.23443872  0.7990402100000001  0.20241355968486172  1.0000
  O   O2        1.0  0.26495984  0.17438124  0.20337086462443094  1.0000
  O   O3        1.0  0.7371772800000002  0.6994906100000001  0.20181237764527887  1.0000
  O   O4        1.0  0.76466221  0.32500525  0.20154492776312036  1.0000
  O   O5        1.0  0.54367982  0.8425898100000002  0.20754276209635183  1.0000
  O   O6        1.0  0.9563687300000002  0.1414931  0.20917432107397257  1.0000
  O   O7        1.0  0.04188205000000001  0.6542265500000001  0.2069689691096886  1.0000
  O   O8        1.0  0.47255913000000005  0.35936529000000017  0.20873588524715855  1.0000
  O   O9        1.0  0.8510057700000002  0.9336240700000004  0.20625118795910488  1.0000
  O   O10       1.0  0.65356406  0.043932640000000016  0.2036404703396063  1.0000
  O   O11       1.0  0.15232522  0.42678214000000003  0.21279558733815587  1.0000
  O   O12       1.0  0.3455249200000001  0.57184346  0.21015220616324962  1.0000
  O   O13       1.0  0.35233943000000006  0.94806763  0.22112842282482792  1.0000
  O   O14       1.0  0.15021846000000003  0.03892542  0.22169411033966774  1.0000
  O   O15       1.0  0.6516288100000002  0.45806833000000013  0.22210944959958695  1.0000
  O   O16       1.0  0.8508913700000003  0.55624178  0.22195918573670614  1.0000
  O   O17       1.0  0.46904094  0.14963622  0.2203173155862215  1.0000
  O   O18       1.0  0.03479615  0.8467075000000001  0.2263215061744512  1.0000
  O   O19       1.0  0.95928541  0.35468146000000006  0.22433703503035865  1.0000
  O   O20       1.0  0.5361636  0.65222881  0.22737914941335088  1.0000
  O   O21       1.0  0.7756564000000002  0.18619851  0.232739125693699  1.0000
  O   O22       1.0  0.72417662  0.81246444  0.23407921758183223  1.0000
  O   O23       1.0  0.28957949000000005  0.3027712  0.233773246569503  1.0000
  O   O24       1.0  0.21756431  0.69582845  0.23494132062849382  1.0000
  O   O25       1.0  0.93675814  0.01600023  0.23965426313963045  1.0000
  O   O26       1.0  0.5595982300000001  0.98402652  0.23853360206300467  1.0000
  O   O27       1.0  0.051776560000000006  0.5284607900000001  0.24000410650465462  1.0000
  O   O28       1.0  0.44151341000000005  0.47870882000000015  0.24040536763793308  1.0000
  O   O29       1.0  0.09995834000000005  0.20912816  0.24700138425733237  1.0000
  O   O30       1.0  0.4027986  0.79381134  0.24856945740500633  1.0000
  O   O31       1.0  0.5950725800000001  0.28539054  0.24726804392311807  1.0000
  O   O32       1.0  0.9051873800000001  0.71490261  0.24872516839045655  1.0000
  O   O33       1.0  0.30754379  0.09867321000000003  0.2509312185070699  1.0000
  O   O34       1.0  0.19732763000000003  0.90528091  0.25239933311959245  1.0000
  O   O35       1.0  0.80419284  0.39759589  0.25167686437479764  1.0000
  O   O36       1.0  0.69408175  0.6023648700000002  0.2530966913965425  1.0000
  O   O37       1.0  0.19560011000000002  0.40107642  0.26048527969380497  1.0000
  O   O38       1.0  0.30368106  0.60194403  0.26198394038873635  1.0000
  O   O39       1.0  0.6963969300000002  0.09547086000000005  0.2613805756641239  1.0000
  O   O40       1.0  0.80397786  0.90384542  0.2623598762380686  1.0000
  O   O41       1.0  0.4052194200000001  0.28307301  0.2655276542043375  1.0000
  O   O42       1.0  0.0979522  0.71653407  0.2665338643309757  1.0000
  O   O43       1.0  0.90416069  0.21197314  0.2644907522272216  1.0000
  O   O44       1.0  0.59837713  0.7918159000000002  0.26612473555798605  1.0000
  O   O45       1.0  0.9439803800000002  0.52310495  0.2720222354278888  1.0000
  O   O46       1.0  0.5515561400000001  0.47119193000000004  0.27220168742853784  1.0000
  O   O47       1.0  0.05154153  0.02670595  0.2731325009396109  1.0000
  O   O48       1.0  0.44543781000000016  0.97965081  0.27281083300787723  1.0000
  O   O49       1.0  0.71619809  0.30107303  0.27982049721039776  1.0000
  O   O50       1.0  0.78543356  0.69492229  0.2806897122044141  1.0000
  O   O51       1.0  0.21769613000000004  0.19350087000000005  0.2801949101670117  1.0000
  O   O52       1.0  0.28438808000000004  0.8115759400000003  0.2811364606471493  1.0000
  O   O53       1.0  0.03515793  0.34939732  0.2872778304960877  1.0000
  O   O54       1.0  0.46698545  0.64656858  0.2885544749142921  1.0000
  O   O55       1.0  0.53692164  0.14908641  0.2878469819205615  1.0000
  O   O56       1.0  0.96568326  0.8548934000000004  0.28924930526604975  1.0000
  O   O57       1.0  0.34795006  0.44200422000000006  0.2910358080287589  1.0000
  O   O58       1.0  0.15572616  0.55074761  0.2911443438639562  1.0000
  O   O59       1.0  0.6568584600000003  0.9486376800000003  0.29218427244649964  1.0000
  O   O60       1.0  0.8471688100000001  0.060023480000000004  0.29189736636316355  1.0000
  O   O61       1.0  0.8471918300000002  0.44031741  0.30164244893200504  1.0000
  O   O62       1.0  0.65683778  0.55163989  0.3013172557146086  1.0000
  O   O63       1.0  0.15568878  0.94956541  0.3023707714155612  1.0000
  O   O64       1.0  0.34787874000000013  0.05815495  0.30243194030041515  1.0000
  O   O65       1.0  0.96570028  0.6451056600000004  0.30439242492519303  1.0000
  O   O66       1.0  0.5368478600000001  0.3510604700000002  0.30564249735886323  1.0000
  O   O67       1.0  0.46708723  0.85342855  0.30484566004698804  1.0000
  O   O68       1.0  0.03529068  0.15067719  0.3063133757153226  1.0000
  O   O69       1.0  0.28465057  0.6887705900000002  0.3124211652044207  1.0000
  O   O70       1.0  0.21794597000000002  0.30643256000000013  0.31326134550074125  1.0000
  O   O71       1.0  0.78508254  0.8049975400000002  0.31277119653353364  1.0000
  O   O72       1.0  0.7159415400000002  0.19901892  0.3136939889648229  1.0000
  O   O73       1.0  0.44565423  0.52066698  0.32068576205490407  1.0000
  O   O74       1.0  0.05242858000000001  0.47347193  0.32039843017536707  1.0000
  O   O75       1.0  0.5512991400000001  0.02877594000000001  0.32132271481136027  1.0000
  O   O76       1.0  0.94341258  0.97699892  0.32150443005307694  1.0000
  O   O77       1.0  0.59817833  0.7085165  0.3273796465884685  1.0000
  O   O78       1.0  0.9038407700000001  0.28830334  0.32897898698689143  1.0000
  O   O79       1.0  0.0982218  0.7838978200000001  0.3269862684389086  1.0000
  O   O80       1.0  0.4051330100000002  0.21687705  0.32795384235532166  1.0000
  O   O81       1.0  0.80376366  0.5961691600000001  0.33116470245791274  1.0000
  O   O82       1.0  0.6962294100000003  0.40470886  0.33212260964976603  1.0000
  O   O83       1.0  0.30424657  0.8983945500000002  0.3314779848896909  1.0000
  O   O84       1.0  0.19604979  0.09870064  0.33303156945853046  1.0000
  O   O85       1.0  0.6943053500000003  0.8977394500000001  0.34042829775163247  1.0000
  O   O86       1.0  0.8041536800000002  0.10268305  0.3418190555516652  1.0000
  O   O87       1.0  0.19750017  0.59524796  0.34115089308448704  1.0000
  O   O88       1.0  0.3073679  0.40145381  0.3425097161694559  1.0000
  O   O89       1.0  0.90524691  0.78492478  0.3447364845318422  1.0000
  O   O90       1.0  0.59482765  0.21488923000000004  0.3462176300425116  1.0000
  O   O91       1.0  0.40286752000000003  0.70658768  0.34500563759880404  1.0000
  O   O92       1.0  0.09974723000000005  0.29060523  0.3464434516330337  1.0000
  O   O93       1.0  0.44153533  0.02152654  0.35324584898578465  1.0000
  O   O94       1.0  0.05154773  0.9718579700000002  0.3534642479128053  1.0000
  O   O95       1.0  0.5592769900000001  0.51620589  0.35496642238539416  1.0000
  O   O96       1.0  0.9366911400000001  0.48393449  0.3537755394596443  1.0000
  O   O97       1.0  0.21809886  0.8055796400000004  0.3585715582619686  1.0000
  O   O98       1.0  0.28968531  0.19769575  0.35971262686822075  1.0000
  O   O99       1.0  0.7235033000000001  0.6876442  0.35938368204105464  1.0000
  O   O100      1.0  0.7754831200000001  0.31413467  0.360756790396762  1.0000
  O   O101      1.0  0.5360282400000002  0.84821574  0.36621679042429217  1.0000
  O   O102      1.0  0.9589114300000002  0.14513006  0.3691791504936636  1.0000
  O   O103      1.0  0.03523387000000001  0.6527858100000001  0.36731864358404603  1.0000
  O   O104      1.0  0.46872556000000004  0.35056622  0.3731470762413692  1.0000
  O   O105      1.0  0.8506550500000002  0.94357894  0.3715025822656469  1.0000
  O   O106      1.0  0.65173825  0.04261722  0.3713607115747252  1.0000
  O   O107      1.0  0.15014086  0.4600777  0.3717477833373104  1.0000
  O   O108      1.0  0.35182788  0.5519665  0.3723902484283668  1.0000
  O   O109      1.0  0.34638436  0.9285182400000004  0.38373437985949377  1.0000
  O   O110      1.0  0.15223109  0.07323396  0.38058904633981233  1.0000
  O   O111      1.0  0.6531186300000001  0.45613274  0.38985293700567125  1.0000
  O   O112      1.0  0.8507637  0.56541863  0.3871319726941683  1.0000
  O   O113      1.0  0.47284441000000016  0.14111452000000002  0.38490872961744504  1.0000
  O   O114      1.0  0.04148596000000001  0.8455037900000002  0.3864012833974958  1.0000
  O   O115      1.0  0.95652321  0.35762588  0.3842557884054469  1.0000
  O   O116      1.0  0.54310674  0.65759814  0.3859797796826687  1.0000
  O   O117      1.0  0.7647150300000001  0.17559775  0.3919486445302351  1.0000
  O   O118      1.0  0.73793109  0.79871826  0.3917325587123055  1.0000
  O   O119      1.0  0.26483485  0.3253812  0.3902001488734541  1.0000
  O   O120      1.0  0.23330561000000005  0.70073142  0.39102939656461766  1.0000
  O   O121      1.0  0.22390233  0.55199357  0.1809047292829565  1.0000
  O   O122      1.0  0.55745948  0.56227353  0.19338275599695187  1.0000
  O   O123      1.0  0.43529752  0.02948898  0.1910009441134302  1.0000
  O   O124      1.0  0.061858530000000016  0.9442671200000003  0.19272330508988306  1.0000
  O   O125      1.0  0.9441620100000001  0.4725508  0.19177123245678201  1.0000
  O   O126      1.0  0.9438325400000003  0.02765767  0.40167354205755507  1.0000
  O   O127      1.0  0.0613664  0.55384052  0.4007577042975463  1.0000
  O   O128      1.0  0.4349726300000002  0.47039146  0.4025030467608398  1.0000
  O   O129      1.0  0.5615569600000001  0.9385229  0.40005889984791404  1.0000
  O   O130      1.0  0.21895688000000002  0.94711311  0.41262661228421504  1.0000
  Li  Li85      1.0  0.1335406682689119  0.18054779829546536  0.6574931953834198  1.0000
  Li  Li86      1.0  0.2670813405440439  0.5539013383122262  0.6574931953834198  1.0000
  Co  Co1       1.0  0.13354066826891195  0.37297047928470384  0.6574931953834198  1.0000
  Co  Co2       1.0  0.2670813405440439  0.7463240193014645  0.6574931953834198  1.0000
  O   O131      1.0  1.6844838342927867e-17  0.45790542281019675  0.6574931953834198  1.0000
  O   O132      1.0  6.379613930702976e-19  0.08455188279343581  0.6574931953834198  1.0000
  O   O133      1.0  0.13354066826891192  0.6619983887532791  0.6574931953834198  1.0000
  O   O134      1.0  0.2670813405440439  0.28864484873651813  0.6574931953834198  1.0000
  Li  Li87      1.0  0.33385167267538984  0.18054779829546536  0.675213115245171  1.0000
  Li  Li88      1.0  0.06677033613756614  0.5539013383122262  0.675213115245171  1.0000
  Co  Co3       1.0  0.33385167267538984  0.37297047928470384  0.675213115245171  1.0000
  Co  Co4       1.0  0.06677033613756614  0.7463240193014645  0.675213115245171  1.0000
  O   O135      1.0  0.20031100440647798  0.45790542281019675  0.675213115245171  1.0000
  O   O136      1.0  0.20031100440647798  0.08455188279343581  0.675213115245171  1.0000
  O   O137      1.0  0.33385167267538984  0.6619983887532791  0.675213115245171  1.0000
  O   O138      1.0  0.06677033613756614  0.28864484873651813  0.675213115245171  1.0000
  Li  Li89      1.0  0.13354066826891203  0.18054779829546536  0.6929330351069217  1.0000
  Li  Li90      1.0  0.2670813405440441  0.5539013383122262  0.6929330351069217  1.0000
  Co  Co5       1.0  0.13354066826891203  0.37297047928470384  0.6929330351069217  1.0000
  Co  Co6       1.0  0.26708134054404387  0.7463240193014645  0.6929330351069217  1.0000
  O   O139      1.0  8.895595598601827e-17  0.45790542281019675  0.6929330351069217  1.0000
  O   O140      1.0  8.895595598601827e-17  0.08455188279343581  0.6929330351069217  1.0000
  O   O141      1.0  0.13354066826891203  0.6619983887532791  0.6929330351069217  1.0000
  O   O142      1.0  0.26708134054404387  0.28864484873651813  0.6929330351069217  1.0000
  Li  Li91      1.0  0.33385167267539  0.18054779829546536  0.7106529549686725  1.0000
  Li  Li92      1.0  0.06677033613756604  0.5539013383122262  0.7106529549686725  1.0000
  Co  Co7       1.0  0.33385167267539  0.37297047928470384  0.7106529549686725  1.0000
  Co  Co8       1.0  0.06677033613756604  0.7463240193014645  0.7106529549686725  1.0000
  O   O143      1.0  0.2003110044064779  0.45790542281019675  0.7106529549686725  1.0000
  O   O144      1.0  0.2003110044064779  0.08455188279343581  0.7106529549686725  1.0000
  O   O145      1.0  0.33385167267539  0.6619983887532791  0.7106529549686725  1.0000
  O   O146      1.0  0.06677033613756604  0.28864484873651813  0.7106529549686725  1.0000
  Li  Li93      1.0  0.13354066826891203  0.18054779829546536  0.7283728748304233  1.0000
  Li  Li94      1.0  0.267081340544044  0.5539013383122262  0.7283728748304233  1.0000
  Co  Co9       1.0  0.13354066826891203  0.37297047928470384  0.7283728748304233  1.0000
  Co  Co10      1.0  0.267081340544044  0.7463240193014645  0.7283728748304233  1.0000
  O   O147      1.0  1.7791191197203654e-16  0.45790542281019675  0.7283728748304233  1.0000
  O   O148      1.0  1.7791191197203654e-16  0.08455188279343581  0.7283728748304233  1.0000
  O   O149      1.0  0.13354066826891203  0.6619983887532791  0.7283728748304233  1.0000
  O   O150      1.0  0.267081340544044  0.28864484873651813  0.7283728748304233  1.0000
  Li  Li95      1.0  0.33385167267539  0.18054779829546536  0.7460927946921742  1.0000
  Li  Li96      1.0  0.06677033613756624  0.5539013383122262  0.7460927946921742  1.0000
  Co  Co11      1.0  0.33385167267539  0.37297047928470384  0.7460927946921742  1.0000
  Co  Co12      1.0  0.06677033613756624  0.7463240193014645  0.7460927946921742  1.0000
  O   O151      1.0  0.20031100440647812  0.45790542281019675  0.7460927946921742  1.0000
  O   O152      1.0  0.20031100440647812  0.08455188279343581  0.7460927946921742  1.0000
  O   O153      1.0  0.33385167267539  0.6619983887532791  0.7460927946921742  1.0000
  O   O154      1.0  0.06677033613756624  0.28864484873651813  0.7460927946921742  1.0000
  Li  Li97      1.0  0.5341626770818677  0.18054779829546536  0.6574931953834198  1.0000
  Li  Li98      1.0  0.6677033493569997  0.5539013383122262  0.6574931953834198  1.0000
  Co  Co13      1.0  0.5341626770818678  0.37297047928470384  0.6574931953834198  1.0000
  Co  Co14      1.0  0.6677033493569997  0.7463240193014645  0.6574931953834198  1.0000
  O   O155      1.0  0.40062200881295573  0.45790542281019675  0.6574931953834198  1.0000
  O   O156      1.0  0.40062200881295573  0.08455188279343581  0.6574931953834198  1.0000
  O   O157      1.0  0.5341626770818677  0.6619983887532791  0.6574931953834198  1.0000
  O   O158      1.0  0.6677033493569997  0.28864484873651813  0.6574931953834198  1.0000
  Li  Li99      1.0  0.7344736814883457  0.18054779829546536  0.675213115245171  1.0000
  Li  Li100     1.0  0.46739234495052195  0.5539013383122262  0.675213115245171  1.0000
  Co  Co15      1.0  0.7344736814883457  0.37297047928470384  0.675213115245171  1.0000
  Co  Co16      1.0  0.46739234495052195  0.7463240193014645  0.675213115245171  1.0000
  O   O159      1.0  0.6009330132194337  0.45790542281019675  0.675213115245171  1.0000
  O   O160      1.0  0.6009330132194337  0.08455188279343581  0.675213115245171  1.0000
  O   O161      1.0  0.7344736814883457  0.6619983887532791  0.675213115245171  1.0000
  O   O162      1.0  0.46739234495052195  0.28864484873651813  0.675213115245171  1.0000
  Li  Li101     1.0  0.5341626770818678  0.18054779829546536  0.6929330351069217  1.0000
  Li  Li102     1.0  0.6677033493569998  0.5539013383122262  0.6929330351069217  1.0000
  Co  Co17      1.0  0.5341626770818678  0.37297047928470384  0.6929330351069217  1.0000
  Co  Co18      1.0  0.6677033493569997  0.7463240193014645  0.6929330351069217  1.0000
  O   O163      1.0  0.40062200881295595  0.45790542281019675  0.6929330351069217  1.0000
  O   O164      1.0  0.40062200881295595  0.08455188279343581  0.6929330351069217  1.0000
  O   O165      1.0  0.5341626770818678  0.6619983887532791  0.6929330351069217  1.0000
  O   O166      1.0  0.6677033493569997  0.28864484873651813  0.6929330351069217  1.0000
  Li  Li103     1.0  0.7344736814883457  0.18054779829546536  0.7106529549686725  1.0000
  Li  Li104     1.0  0.4673923449505219  0.5539013383122262  0.7106529549686725  1.0000
  Co  Co19      1.0  0.7344736814883457  0.37297047928470384  0.7106529549686725  1.0000
  Co  Co20      1.0  0.4673923449505219  0.7463240193014645  0.7106529549686725  1.0000
  O   O167      1.0  0.6009330132194337  0.45790542281019675  0.7106529549686725  1.0000
  O   O168      1.0  0.6009330132194337  0.08455188279343581  0.7106529549686725  1.0000
  O   O169      1.0  0.7344736814883457  0.6619983887532791  0.7106529549686725  1.0000
  O   O170      1.0  0.4673923449505219  0.28864484873651813  0.7106529549686725  1.0000
  Li  Li105     1.0  0.5341626770818678  0.18054779829546536  0.7283728748304233  1.0000
  Li  Li106     1.0  0.6677033493569997  0.5539013383122262  0.7283728748304233  1.0000
  Co  Co21      1.0  0.5341626770818678  0.37297047928470384  0.7283728748304233  1.0000
  Co  Co22      1.0  0.6677033493569997  0.7463240193014645  0.7283728748304233  1.0000
  O   O171      1.0  0.400622008812956  0.45790542281019675  0.7283728748304233  1.0000
  O   O172      1.0  0.400622008812956  0.08455188279343581  0.7283728748304233  1.0000
  O   O173      1.0  0.5341626770818678  0.6619983887532791  0.7283728748304233  1.0000
  O   O174      1.0  0.6677033493569997  0.28864484873651813  0.7283728748304233  1.0000
  Li  Li107     1.0  0.7344736814883457  0.18054779829546536  0.7460927946921742  1.0000
  Li  Li108     1.0  0.4673923449505221  0.5539013383122262  0.7460927946921742  1.0000
  Co  Co23      1.0  0.7344736814883457  0.37297047928470384  0.7460927946921742  1.0000
  Co  Co24      1.0  0.4673923449505221  0.7463240193014645  0.7460927946921742  1.0000
  O   O175      1.0  0.6009330132194339  0.45790542281019675  0.7460927946921742  1.0000
  O   O176      1.0  0.6009330132194339  0.08455188279343581  0.7460927946921742  1.0000
  O   O177      1.0  0.7344736814883457  0.6619983887532791  0.7460927946921742  1.0000
  O   O178      1.0  0.4673923449505221  0.28864484873651813  0.7460927946921742  1.0000
  Li  Li109     1.0  0.1335406682689119  0.18054779829546536  0.7460927946921742  1.0000
  Li  Li110     1.0  0.2670813405440439  0.5539013383122262  0.7460927946921742  1.0000
  Co  Co25      1.0  0.13354066826891195  0.37297047928470384  0.7460927946921742  1.0000
  Co  Co26      1.0  0.2670813405440439  0.7463240193014645  0.7460927946921742  1.0000
  O   O179      1.0  1.6844838342927867e-17  0.45790542281019675  0.7460927946921742  1.0000
  O   O180      1.0  6.379613930702976e-19  0.08455188279343581  0.7460927946921742  1.0000
  O   O181      1.0  0.13354066826891192  0.6619983887532791  0.7460927946921742  1.0000
  O   O182      1.0  0.2670813405440439  0.28864484873651813  0.7460927946921742  1.0000
  Li  Li111     1.0  0.33385167267538984  0.18054779829546536  0.7638127145539251  1.0000
  Li  Li112     1.0  0.06677033613756614  0.5539013383122262  0.7638127145539251  1.0000
  Co  Co27      1.0  0.33385167267538984  0.37297047928470384  0.7638127145539251  1.0000
  Co  Co28      1.0  0.06677033613756614  0.7463240193014645  0.7638127145539251  1.0000
  O   O183      1.0  0.20031100440647798  0.45790542281019675  0.7638127145539251  1.0000
  O   O184      1.0  0.20031100440647798  0.08455188279343581  0.7638127145539251  1.0000
  O   O185      1.0  0.33385167267538984  0.6619983887532791  0.7638127145539251  1.0000
  O   O186      1.0  0.06677033613756614  0.28864484873651813  0.7638127145539251  1.0000
  Li  Li113     1.0  0.13354066826891203  0.18054779829546536  0.7815326344156763  1.0000
  Li  Li114     1.0  0.2670813405440441  0.5539013383122262  0.7815326344156763  1.0000
  Co  Co29      1.0  0.13354066826891203  0.37297047928470384  0.7815326344156763  1.0000
  Co  Co30      1.0  0.26708134054404387  0.7463240193014645  0.7815326344156763  1.0000
  O   O187      1.0  8.895595598601827e-17  0.45790542281019675  0.7815326344156763  1.0000
  O   O188      1.0  8.895595598601827e-17  0.08455188279343581  0.7815326344156763  1.0000
  O   O189      1.0  0.13354066826891203  0.6619983887532791  0.7815326344156763  1.0000
  O   O190      1.0  0.26708134054404387  0.28864484873651813  0.7815326344156763  1.0000
  Li  Li115     1.0  0.33385167267539  0.18054779829546536  0.799252554277427  1.0000
  Li  Li116     1.0  0.06677033613756604  0.5539013383122262  0.799252554277427  1.0000
  Co  Co31      1.0  0.33385167267539  0.37297047928470384  0.799252554277427  1.0000
  Co  Co32      1.0  0.06677033613756604  0.7463240193014645  0.799252554277427  1.0000
  O   O191      1.0  0.2003110044064779  0.45790542281019675  0.799252554277427  1.0000
  O   O192      1.0  0.2003110044064779  0.08455188279343581  0.799252554277427  1.0000
  O   O193      1.0  0.33385167267539  0.6619983887532791  0.799252554277427  1.0000
  O   O194      1.0  0.06677033613756604  0.28864484873651813  0.799252554277427  1.0000
  Li  Li117     1.0  0.13354066826891203  0.18054779829546536  0.8169724741391778  1.0000
  Li  Li118     1.0  0.267081340544044  0.5539013383122262  0.8169724741391778  1.0000
  Co  Co33      1.0  0.13354066826891203  0.37297047928470384  0.8169724741391778  1.0000
  Co  Co34      1.0  0.267081340544044  0.7463240193014645  0.8169724741391778  1.0000
  O   O195      1.0  1.7791191197203654e-16  0.45790542281019675  0.8169724741391778  1.0000
  O   O196      1.0  1.7791191197203654e-16  0.08455188279343581  0.8169724741391778  1.0000
  O   O197      1.0  0.13354066826891203  0.6619983887532791  0.8169724741391778  1.0000
  O   O198      1.0  0.267081340544044  0.28864484873651813  0.8169724741391778  1.0000
  Li  Li119     1.0  0.33385167267539  0.18054779829546536  0.8346923940009288  1.0000
  Li  Li120     1.0  0.06677033613756624  0.5539013383122262  0.8346923940009288  1.0000
  Co  Co35      1.0  0.33385167267539  0.37297047928470384  0.8346923940009288  1.0000
  Co  Co36      1.0  0.06677033613756624  0.7463240193014645  0.8346923940009288  1.0000
  O   O199      1.0  0.20031100440647812  0.45790542281019675  0.8346923940009288  1.0000
  O   O200      1.0  0.20031100440647812  0.08455188279343581  0.8346923940009288  1.0000
  O   O201      1.0  0.33385167267539  0.6619983887532791  0.8346923940009288  1.0000
  O   O202      1.0  0.06677033613756624  0.28864484873651813  0.8346923940009288  1.0000
  Li  Li121     1.0  0.5341626770818677  0.18054779829546536  0.7460927946921742  1.0000
  Li  Li122     1.0  0.6677033493569997  0.5539013383122262  0.7460927946921742  1.0000
  Co  Co37      1.0  0.5341626770818678  0.37297047928470384  0.7460927946921742  1.0000
  Co  Co38      1.0  0.6677033493569997  0.7463240193014645  0.7460927946921742  1.0000
  O   O203      1.0  0.40062200881295573  0.45790542281019675  0.7460927946921742  1.0000
  O   O204      1.0  0.40062200881295573  0.08455188279343581  0.7460927946921742  1.0000
  O   O205      1.0  0.5341626770818677  0.6619983887532791  0.7460927946921742  1.0000
  O   O206      1.0  0.6677033493569997  0.28864484873651813  0.7460927946921742  1.0000
  Li  Li123     1.0  0.7344736814883457  0.18054779829546536  0.7638127145539251  1.0000
  Li  Li124     1.0  0.46739234495052195  0.5539013383122262  0.7638127145539251  1.0000
  Co  Co39      1.0  0.7344736814883457  0.37297047928470384  0.7638127145539251  1.0000
  Co  Co40      1.0  0.46739234495052195  0.7463240193014645  0.7638127145539251  1.0000
  O   O207      1.0  0.6009330132194337  0.45790542281019675  0.7638127145539251  1.0000
  O   O208      1.0  0.6009330132194337  0.08455188279343581  0.7638127145539251  1.0000
  O   O209      1.0  0.7344736814883457  0.6619983887532791  0.7638127145539251  1.0000
  O   O210      1.0  0.46739234495052195  0.28864484873651813  0.7638127145539251  1.0000
  Li  Li125     1.0  0.5341626770818678  0.18054779829546536  0.7815326344156763  1.0000
  Li  Li126     1.0  0.6677033493569998  0.5539013383122262  0.7815326344156763  1.0000
  Co  Co41      1.0  0.5341626770818678  0.37297047928470384  0.7815326344156763  1.0000
  Co  Co42      1.0  0.6677033493569997  0.7463240193014645  0.7815326344156763  1.0000
  O   O211      1.0  0.40062200881295595  0.45790542281019675  0.7815326344156763  1.0000
  O   O212      1.0  0.40062200881295595  0.08455188279343581  0.7815326344156763  1.0000
  O   O213      1.0  0.5341626770818678  0.6619983887532791  0.7815326344156763  1.0000
  O   O214      1.0  0.6677033493569997  0.28864484873651813  0.7815326344156763  1.0000
  Li  Li127     1.0  0.7344736814883457  0.18054779829546536  0.799252554277427  1.0000
  Li  Li128     1.0  0.4673923449505219  0.5539013383122262  0.799252554277427  1.0000
  Co  Co43      1.0  0.7344736814883457  0.37297047928470384  0.799252554277427  1.0000
  Co  Co44      1.0  0.4673923449505219  0.7463240193014645  0.799252554277427  1.0000
  O   O215      1.0  0.6009330132194337  0.45790542281019675  0.799252554277427  1.0000
  O   O216      1.0  0.6009330132194337  0.08455188279343581  0.799252554277427  1.0000
  O   O217      1.0  0.7344736814883457  0.6619983887532791  0.799252554277427  1.0000
  O   O218      1.0  0.4673923449505219  0.28864484873651813  0.799252554277427  1.0000
  Li  Li129     1.0  0.5341626770818678  0.18054779829546536  0.8169724741391778  1.0000
  Li  Li130     1.0  0.6677033493569997  0.5539013383122262  0.8169724741391778  1.0000
  Co  Co45      1.0  0.5341626770818678  0.37297047928470384  0.8169724741391778  1.0000
  Co  Co46      1.0  0.6677033493569997  0.7463240193014645  0.8169724741391778  1.0000
  O   O219      1.0  0.400622008812956  0.45790542281019675  0.8169724741391778  1.0000
  O   O220      1.0  0.400622008812956  0.08455188279343581  0.8169724741391778  1.0000
  O   O221      1.0  0.5341626770818678  0.6619983887532791  0.8169724741391778  1.0000
  O   O222      1.0  0.6677033493569997  0.28864484873651813  0.8169724741391778  1.0000
  Li  Li131     1.0  0.7344736814883457  0.18054779829546536  0.8346923940009288  1.0000
  Li  Li132     1.0  0.4673923449505221  0.5539013383122262  0.8346923940009288  1.0000
  Co  Co47      1.0  0.7344736814883457  0.37297047928470384  0.8346923940009288  1.0000
  Co  Co48      1.0  0.4673923449505221  0.7463240193014645  0.8346923940009288  1.0000
  O   O223      1.0  0.6009330132194339  0.45790542281019675  0.8346923940009288  1.0000
  O   O224      1.0  0.6009330132194339  0.08455188279343581  0.8346923940009288  1.0000
  O   O225      1.0  0.7344736814883457  0.6619983887532791  0.8346923940009288  1.0000
  O   O226      1.0  0.4673923449505221  0.28864484873651813  0.8346923940009288  1.0000
