# generated using pymatgen
data_Li90La8Zr5O31
_symmetry_space_group_name_H-M   'P 1'
_cell_length_a   13.28672851
_cell_length_b   13.69931371
_cell_length_c   68.56952580
_cell_angle_alpha   90.09103559
_cell_angle_beta   90.07697889
_cell_angle_gamma   90.07747693
_symmetry_Int_Tables_number   1
_chemical_formula_structural   Li90La8Zr5O31
_chemical_formula_sum   'Li360 La32 Zr20 O124'
_cell_volume   12480.92229908
_cell_formula_units_Z   4
loop_
 _symmetry_equiv_pos_site_id
 _symmetry_equiv_pos_as_xyz
  1  'x, y, z'
loop_
 _atom_site_type_symbol
 _atom_site_label
 _atom_site_symmetry_multiplicity
 _atom_site_fract_x
 _atom_site_fract_y
 _atom_site_fract_z
 _atom_site_occupancy
  Li  Li0  1  0.69603382  0.94745802  0.22700009  1
  Li  Li1  1  0.79753431  0.14698806  0.22791043  1
  Li  Li2  1  0.20864154  0.55689082  0.22516087  1
  Li  Li3  1  0.32014575  0.40479146  0.23005197  1
  Li  Li4  1  0.87626521  0.26538036  0.24882897  1
  Li  Li5  1  0.63151698  0.75647679  0.24109233  1
  Li  Li6  1  0.40529821  0.22279056  0.23530829  1
  Li  Li7  1  0.11449076  0.75849810  0.22524140  1
  Li  Li8  1  0.34597826  0.11863431  0.26005078  1
  Li  Li9  1  0.16383990  0.84692051  0.25328401  1
  Li  Li10  1  0.78876990  0.46021664  0.26604438  1
  Li  Li11  1  0.67246169  0.60666351  0.25729438  1
  Li  Li12  1  0.41286700  0.32716357  0.26435187  1
  Li  Li13  1  0.09941721  0.66233028  0.25814533  1
  Li  Li14  1  0.95077645  0.15689663  0.27563990  1
  Li  Li15  1  0.58831904  0.86221611  0.26413108  1
  Li  Li16  1  0.32733599  0.94668311  0.27537634  1
  Li  Li17  1  0.15705167  0.04759914  0.27161211  1
  Li  Li18  1  0.58013080  0.43086598  0.27866604  1
  Li  Li19  1  0.93902137  0.59230301  0.27550911  1
  Li  Li20  1  0.41386040  0.41627241  0.29990080  1
  Li  Li21  1  0.09884788  0.59346813  0.29982764  1
  Li  Li22  1  0.67140713  0.94788943  0.30614074  1
  Li  Li23  1  0.84390739  0.07078956  0.30744782  1
  Li  Li24  1  0.05434989  0.15268936  0.30448262  1
  Li  Li25  1  0.49833223  0.89010343  0.29362560  1
  Li  Li26  1  0.59337144  0.34535695  0.30928904  1
  Li  Li27  1  0.94014353  0.68306919  0.30604747  1
  Li  Li28  1  0.21489120  0.42604700  0.31675615  1
  Li  Li29  1  0.30436266  0.58604467  0.31959047  1
  Li  Li30  1  0.68381169  0.10373470  0.32787773  1
  Li  Li31  1  0.83943762  0.90469146  0.32401123  1
  Li  Li32  1  0.40212632  0.78846413  0.32722836  1
  Li  Li33  1  0.13143541  0.25310977  0.33622322  1
  Li  Li34  1  0.88416942  0.74862960  0.33751675  1
  Li  Li35  1  0.63351695  0.26042627  0.33850608  1
  Li  Li36  1  0.82490326  0.59389070  0.35054971  1
  Li  Li37  1  0.70085859  0.42047887  0.34719676  1
  Li  Li38  1  0.29896553  0.92403138  0.35497144  1
  Li  Li39  1  0.21350847  0.08582149  0.35639125  1
  Li  Li40  1  0.94213722  0.83374783  0.36400107  1
  Li  Li41  1  0.58621042  0.15969935  0.36318346  1
  Li  Li42  1  0.41639575  0.66931306  0.35414654  1
  Li  Li43  1  0.06236309  0.35093703  0.36731399  1
  Li  Li44  1  0.85802207  0.42892991  0.36747636  1
  Li  Li45  1  0.66022067  0.58348868  0.36844511  1
  Li  Li46  1  0.09416686  0.91962681  0.37363168  1
  Li  Li47  1  0.41566079  0.09322499  0.37323036  1
  Li  Li48  1  0.93159432  0.92431846  0.39544786  1
  Li  Li49  1  0.57876732  0.08314407  0.39476389  1
  Li  Li50  1  0.15630116  0.46562458  0.39990539  1
  Li  Li51  1  0.32442865  0.56260358  0.39880426  1
  Li  Li52  1  0.50082339  0.61858825  0.38508282  1
  Li  Li53  1  0.95635847  0.35111447  0.39817907  1
  Li  Li54  1  0.08652436  0.83672396  0.40987325  1
  Li  Li55  1  0.41698615  0.19851260  0.40440054  1
  Li  Li56  1  0.67276903  0.84556648  0.41743573  1
  Li  Li57  1  0.76122171  0.01047120  0.40535902  1
  Li  Li58  1  0.16136171  0.66870326  0.42024802  1
  Li  Li59  1  0.34325640  0.38896000  0.41247378  1
  Li  Li60  1  0.85041307  0.18657227  0.41665222  1
  Li  Li61  1  0.60117014  0.65827557  0.41216476  1
  Li  Li62  1  0.39129603  0.26387813  0.43576103  1
  Li  Li63  1  0.10666399  0.72916656  0.45123260  1
  Li  Li64  1  0.30947074  0.07925951  0.44517694  1
  Li  Li65  1  0.19849706  0.90854557  0.44241511  1
  Li  Li66  1  0.82518414  0.36267864  0.43911841  1
  Li  Li67  1  0.69847474  0.52082815  0.44882396  1
  Li  Li68  1  0.92700548  0.19900971  0.44777473  1
  Li  Li69  1  0.58686356  0.85172573  0.44881050  1
  Li  Li70  1  0.62900681  0.64714401  0.21254340  1
  Li  Li71  1  0.89883296  0.30853932  0.21542431  1
  Li  Li72  1  0.03514314  0.94114668  0.50888429  1
  Li  Li73  1  0.17790248  0.05960473  0.61133379  1
  Li  Li74  1  0.18361289  -0.07950958  0.64549060  1
  Li  Li75  1  0.01995549  0.03633448  0.65926872  1
  Li  Li76  1  0.18546339  -0.01306779  0.72537534  1
  Li  Li77  1  0.09474784  0.16474981  0.77649520  1
  Li  Li78  1  0.17994015  -0.00036479  0.86459956  1
  Li  Li79  1  0.12053834  0.08936864  0.46415436  1
  Li  Li80  1  -0.05706608  0.11398743  0.52204467  1
  Li  Li81  1  0.14348507  0.21726313  0.58359454  1
  Li  Li82  1  0.16319755  0.16780544  0.64919777  1
  Li  Li83  1  0.06157900  0.18860220  0.68694172  1
  Li  Li84  1  0.26940379  0.17616677  0.71538481  1
  Li  Li85  1  0.16962809  0.29371800  0.75289555  1
  Li  Li86  1  0.19470814  0.14138188  0.83663821  1
  Li  Li87  1  0.05463683  0.27700418  0.50296806  1
  Li  Li88  1  0.01134623  0.29702240  0.54325299  1
  Li  Li89  1  0.22028863  0.43181088  0.60650719  1
  Li  Li90  1  0.19192374  0.36008678  0.64645110  1
  Li  Li91  1  0.07689851  0.38609169  0.67862792  1
  Li  Li92  1  0.15415646  0.33915332  0.71566475  1
  Li  Li93  1  0.06684294  0.38628936  0.78473268  1
  Li  Li94  1  0.09117921  0.35257143  0.84804883  1
  Li  Li95  1  -0.02300525  0.36836735  0.46975280  1
  Li  Li96  1  0.89956624  0.43769066  0.55518314  1
  Li  Li97  1  0.06858395  0.55940813  0.56047321  1
  Li  Li98  1  0.19527202  0.54093926  0.66694463  1
  Li  Li99  1  0.05506868  0.51189831  0.70657017  1
  Li  Li100  1  0.14115752  0.49295220  0.74401427  1
  Li  Li101  1  0.08356739  0.60022521  0.78662789  1
  Li  Li102  1  0.19850339  0.47155000  0.81653986  1
  Li  Li103  1  0.04736790  0.56742649  0.48514278  1
  Li  Li104  1  0.83247365  0.62266885  0.50551965  1
  Li  Li105  1  -0.01630091  0.73562612  0.56479855  1
  Li  Li106  1  0.09841670  0.60478578  0.59985590  1
  Li  Li107  1  0.09543292  0.81098727  0.72733802  1
  Li  Li108  1  0.21186419  0.68257802  0.75615268  1
  Li  Li109  1  0.02588654  0.79998264  0.80962979  1
  Li  Li110  1  0.13750260  0.65623946  0.83163816  1
  Li  Li111  1  0.12663846  0.76592039  0.49971916  1
  Li  Li112  1  0.92163049  0.79897459  0.52784517  1
  Li  Li113  1  0.10292010  0.88398018  0.58307051  1
  Li  Li114  1  0.16532498  0.78360673  0.61543917  1
  Li  Li115  1  0.01340762  0.97984178  0.70250696  1
  Li  Li116  1  0.23598988  0.89939008  0.76229476  1
  Li  Li117  1  0.08899242  0.97057938  0.78987081  1
  Li  Li118  1  0.19822917  0.89357636  0.82739301  1
  Li  Li119  1  0.22704955  0.93087332  0.48940180  1
  Li  Li120  1  0.02701920  -0.03270183  0.54911170  1
  Li  Li121  1  0.22765690  0.02486396  0.56942391  1
  Li  Li122  1  0.32535477  0.05816806  0.63957856  1
  Li  Li123  1  0.19934372  0.04471193  0.68244736  1
  Li  Li124  1  0.36975585  -0.00243077  0.71286406  1
  Li  Li125  1  0.24799840  0.06757393  0.80005045  1
  Li  Li126  1  0.37912972  -0.00873803  0.83069635  1
  Li  Li127  1  0.33777209  0.09989160  0.49037238  1
  Li  Li128  1  0.14925602  0.11227430  0.50540564  1
  Li  Li129  1  0.28828514  0.23735347  0.61221300  1
  Li  Li130  1  0.35915133  0.24923400  0.64837425  1
  Li  Li131  1  0.24897535  0.27905561  0.68114619  1
  Li  Li132  1  0.34296037  0.25549753  0.77550838  1
  Li  Li133  1  0.21128717  0.28311094  0.80592175  1
  Li  Li134  1  0.40443138  0.13401963  0.86027951  1
  Li  Li135  1  0.24461660  0.26279503  0.47838906  1
  Li  Li136  1  0.12339031  0.14521229  0.54527413  1
  Li  Li137  1  0.19186083  0.36908269  0.56038630  1
  Li  Li138  1  0.36148667  0.36712367  0.58474132  1
  Li  Li139  1  0.27921053  0.46145809  0.70009667  1
  Li  Li140  1  0.34086258  0.36574346  0.73460032  1
  Li  Li141  1  0.27618250  0.45218216  0.77462841  1
  Li  Li142  1  0.30033024  0.32786657  0.84633469  1
  Li  Li143  1  0.18483362  0.42215736  0.49399518  1
  Li  Li144  1  0.11670787  0.45846128  0.52833457  1
  Li  Li145  1  0.27573288  0.53938780  0.57217009  1
  Li  Li146  1  0.34150026  0.46934865  0.63935809  1
  Li  Li147  1  0.06727791  0.68246090  0.68888478  1
  Li  Li148  1  0.36605676  0.56685325  0.74283755  1
  Li  Li149  1  0.32015390  0.61209773  0.79795012  1
  Li  Li150  1  0.35495217  0.54015004  0.84309012  1
  Li  Li151  1  0.23754014  0.60005700  0.50113682  1
  Li  Li152  1  0.02749194  0.63364072  0.52281315  1
  Li  Li153  1  0.20545545  0.72546838  0.57582357  1
  Li  Li154  1  0.25609506  0.62131970  0.62557091  1
  Li  Li155  1  0.24059665  0.73016077  0.66183581  1
  Li  Li156  1  0.23525021  0.64383352  0.71227924  1
  Li  Li157  1  0.21214078  0.77355121  0.79414234  1
  Li  Li158  1  0.36054772  0.74217465  0.82698185  1
  Li  Li159  1  0.30469938  0.73356629  0.47548703  1
  Li  Li160  1  0.13025113  0.80275166  0.54003159  1
  Li  Li161  1  0.29637412  0.90578779  0.60141032  1
  Li  Li162  1  0.35285831  0.80330938  0.63441840  1
  Li  Li163  1  0.19687376  0.85208983  0.69319313  1
  Li  Li164  1  0.32219945  0.81334420  0.72829086  1
  Li  Li165  1  0.26213865  1.09279601  0.75575641  1
  Li  Li166  1  0.35815876  0.85260427  0.86180285  1
  Li  Li167  1  0.41960851  0.93011214  0.46775699  1
  Li  Li168  1  0.22467860  0.96901693  0.52951225  1
  Li  Li169  1  0.38713942  0.08084195  0.59429939  1
  Li  Li170  1  0.46482304  -0.05290200  0.62608903  1
  Li  Li171  1  0.38255513  0.12393074  0.67825544  1
  Li  Li172  1  0.44346234  -0.05387796  0.75133907  1
  Li  Li173  1  0.43468820  0.07443464  0.78505123  1
  Li  Li174  1  0.56423675  -0.03330247  0.86216248  1
  Li  Li175  1  0.53279750  0.11983501  0.50761378  1
  Li  Li176  1  0.34227054  0.12924358  0.52842025  1
  Li  Li177  1  0.32155456  0.19808564  0.56423712  1
  Li  Li178  1  0.49551298  0.15113530  0.62481114  1
  Li  Li179  1  0.43591478  0.29086486  0.70076823  1
  Li  Li180  1  0.43717109  0.18046484  0.74046304  1
  Li  Li181  1  0.39458370  0.20169715  0.81873879  1
  Li  Li182  1  0.56026174  0.09125653  0.82452859  1
  Li  Li183  1  0.41994957  0.28987470  0.50424415  1
  Li  Li184  1  0.23411055  0.28786394  0.52341895  1
  Li  Li185  1  0.41230609  0.35354861  0.54736121  1
  Li  Li186  1  0.46246495  0.34993892  0.62098707  1
  Li  Li187  1  0.41439152  0.40016717  0.67083737  1
  Li  Li188  1  0.50433136  0.38064690  0.75892053  1
  Li  Li189  1  0.40994865  0.39815969  0.80752704  1
  Li  Li190  1  0.51741801  0.34081219  0.84588065  1
  Li  Li191  1  0.40920279  0.47247681  0.48636036  1
  Li  Li192  1  0.32535106  0.47927989  0.52814545  1
  Li  Li193  1  0.41119784  0.52950127  0.60327529  1
  Li  Li194  1  0.56739125  0.46890695  0.64528734  1
  Li  Li195  1  0.40445848  0.58782424  0.67398755  1
  Li  Li196  1  0.47791768  0.50746277  0.71109443  1
  Li  Li197  1  0.48270252  0.54302098  0.78092368  1
  Li  Li198  1  0.54306080  0.54183595  0.82165756  1
  Li  Li199  1  0.43934467  0.63095197  0.51351338  1
  Li  Li200  1  0.21886211  0.63565889  0.53801179  1
  Li  Li201  1  0.38717974  0.72159209  0.59598205  1
  Li  Li202  1  0.46311090  0.63680588  0.63751306  1
  Li  Li203  1  0.38316009  0.75055908  0.69120414  1
  Li  Li204  1  0.50993500  0.72457211  0.72186556  1
  Li  Li205  1  0.41829147  0.74296923  0.76409879  1
  Li  Li206  1  0.52217445  0.68513573  0.85603174  1
  Li  Li207  1  0.51117417  0.60703291  0.46339639  1
  Li  Li208  1  0.31668983  0.78763370  0.51803724  1
  Li  Li209  1  0.33126927  0.86355750  0.55849382  1
  Li  Li210  1  0.56258006  0.79189236  0.61677022  1
  Li  Li211  1  0.35409516  0.91978347  0.66911027  1
  Li  Li212  1  0.51490043  0.90294947  0.69526728  1
  Li  Li213  1  0.38141448  0.88445730  0.79544878  1
  Li  Li214  1  0.54773111  0.85229615  0.82868765  1
  Li  Li215  1  0.42106250  0.95012609  0.51284670  1
  Li  Li216  1  0.46426266  0.02378261  0.55228363  1
  Li  Li217  1  0.58743549  0.09024444  0.58240948  1
  Li  Li218  1  0.63534790  0.01258744  0.61452380  1
  Li  Li219  1  0.53188686  0.11493798  0.70551960  1
  Li  Li220  1  0.61773234  -0.06798860  0.72833200  1
  Li  Li221  1  0.58931227  0.09808161  0.75754291  1
  Li  Li222  1  0.72105633  -0.03574012  0.82762169  1
  Li  Li223  1  0.50823814  0.12779030  0.46532774  1
  Li  Li224  1  0.52728233  0.20996403  0.54247256  1
  Li  Li225  1  0.50308358  0.24917471  0.58300389  1
  Li  Li226  1  0.68427380  0.12318652  0.64478706  1
  Li  Li227  1  0.54798516  0.24538136  0.66197757  1
  Li  Li228  1  0.69966227  0.13582543  0.72524867  1
  Li  Li229  1  0.54458759  0.24173155  0.78963047  1
  Li  Li230  1  0.68449872  0.15976805  0.85810026  1
  Li  Li231  1  0.64377086  0.29008531  0.51026528  1
  Li  Li232  1  0.53788252  0.45362160  0.52010800  1
  Li  Li233  1  0.58744048  0.41860812  0.59217247  1
  Li  Li234  1  0.65100143  0.26594158  0.61492804  1
  Li  Li235  1  0.61825705  0.41614309  0.68479326  1
  Li  Li236  1  0.58773553  0.31836911  0.72557486  1
  Li  Li237  1  0.64180433  0.41582909  0.79209646  1
  Li  Li238  1  0.67215948  0.28279934  0.82257426  1
  Li  Li239  1  0.56145982  0.39136820  0.46819338  1
  Li  Li240  1  0.49181434  0.52338249  0.56340019  1
  Li  Li241  1  0.58741562  0.60187366  0.60612669  1
  Li  Li242  1  0.72349086  0.48719437  0.61983732  1
  Li  Li243  1  0.60866751  0.63702906  0.68309659  1
  Li  Li244  1  0.68944875  0.51443633  0.71675943  1
  Li  Li245  1  0.58152406  0.59102746  0.74842958  1
  Li  Li246  1  0.67591470  0.49987644  0.85689276  1
  Li  Li247  1  0.68726471  0.70239670  0.44048366  1
  Li  Li248  1  0.39875743  0.67785129  0.55304308  1
  Li  Li249  1  0.57855913  0.72465256  0.57521853  1
  Li  Li250  1  0.68545804  0.68390114  0.64090715  1
  Li  Li251  1  0.51650098  0.79385285  0.66017712  1
  Li  Li252  1  0.71492598  0.73576621  0.71831880  1
  Li  Li253  1  0.52863647  0.72156429  0.79863389  1
  Li  Li254  1  0.69674650  0.67807330  0.82892631  1
  Li  Li255  1  0.52457826  0.78213896  0.49627890  1
  Li  Li256  1  0.52551365  0.82037328  0.54032114  1
  Li  Li257  1  0.49152924  0.90245401  0.58564566  1
  Li  Li258  1  0.68155186  0.89894887  0.64735876  1
  Li  Li259  1  0.52829573  1.02166151  0.66073068  1
  Li  Li260  1  0.64507871  0.78766416  0.75947545  1
  Li  Li261  1  0.58553809  0.93859956  0.78831870  1
  Li  Li262  1  0.71939165  0.79880463  0.86232992  1
  Li  Li263  1  0.60286056  0.96511738  0.48375916  1
  Li  Li264  1  0.67211357  0.93611016  0.56712346  1
  Li  Li265  1  0.79907457  0.07184992  0.59261314  1
  Li  Li266  1  0.83755576  0.00768673  0.63015991  1
  Li  Li267  1  0.68926983  0.03633027  0.68521798  1
  Li  Li268  1  0.81292082  -0.03988116  0.71654303  1
  Li  Li269  1  0.70486632  0.10812239  0.79483230  1
  Li  Li270  1  0.85129129  -0.01348793  0.86139416  1
  Li  Li271  1  0.74466422  0.10990137  0.50628466  1
  Li  Li272  1  0.68754076  0.11457009  0.54554295  1
  Li  Li273  1  0.71890192  0.23661859  0.57682458  1
  Li  Li274  1  0.85253275  0.14970375  0.66162921  1
  Li  Li275  1  0.70107588  0.23651534  0.68865946  1
  Li  Li276  1  0.87629827  0.13328278  0.74127719  1
  Li  Li277  1  0.72566677  0.24783912  0.76327651  1
  Li  Li278  1  0.83699200  0.13404619  0.82648296  1
  Li  Li279  1  0.74558237  0.23000772  0.47079773  1
  Li  Li280  1  0.62995304  0.37190734  0.55394451  1
  Li  Li281  1  0.79837276  0.39418872  0.58921920  1
  Li  Li282  1  0.83723595  0.22464682  0.61843929  1
  Li  Li283  1  0.74448838  0.32875440  0.65022196  1
  Li  Li284  1  0.78325367  0.32712670  0.72280046  1
  Li  Li285  1  0.72145774  0.44023685  0.75539285  1
  Li  Li286  1  0.85400326  0.33284287  0.84646593  1
  Li  Li287  1  0.75763989  0.43005266  0.48904961  1
  Li  Li288  1  0.64236727  0.59801879  0.49486002  1
  Li  Li289  1  0.70695060  0.54804003  0.56977888  1
  Li  Li290  1  0.90591961  0.41114513  0.62460591  1
  Li  Li291  1  0.76075712  0.52468242  0.66202278  1
  Li  Li292  1  0.85948180  0.58363490  0.70245798  1
  Li  Li293  1  0.69842733  0.60981002  0.78634917  1
  Li  Li294  1  0.77107914  0.48536752  0.81996699  1
  Li  Li295  1  0.74002416  0.78404717  0.47529694  1
  Li  Li296  1  0.61948956  0.63250154  0.53608632  1
  Li  Li297  1  0.76395633  0.68752453  0.59737365  1
  Li  Li298  1  0.88304954  0.61056491  0.62879303  1
  Li  Li299  1  0.84430616  0.71161088  0.67036643  1
  Li  Li300  1  0.79485717  0.62776457  0.74682822  1
  Li  Li301  1  0.72801772  0.80761908  0.79914349  1
  Li  Li302  1  0.88903946  0.61578481  0.85290274  1
  Li  Li303  1  0.71742547  0.78234195  0.51692704  1
  Li  Li304  1  0.62774596  0.95944379  0.52374759  1
  Li  Li305  1  0.74291574  0.86551391  0.60434311  1
  Li  Li306  1  0.86551447  0.81091250  0.63702879  1
  Li  Li307  1  0.69345893  0.82946530  0.68574367  1
  Li  Li308  1  0.86466267  0.82804622  0.74534829  1
  Li  Li309  1  0.76115084  0.98551135  0.76067860  1
  Li  Li310  1  0.86048303  0.82066937  0.83175731  1
  Li  Li311  1  0.82777860  0.93336893  0.49910999  1
  Li  Li312  1  0.82228618  0.95867550  0.53870670  1
  Li  Li313  1  1.01282585  0.06328372  0.58652857  1
  Li  Li314  1  0.01810813  -0.07533492  0.62075990  1
  Li  Li315  1  0.87629753  0.13862927  0.70040824  1
  Li  Li316  1  0.00671746  -0.01558495  0.75100635  1
  Li  Li317  1  0.90363667  0.12452637  0.78322739  1
  Li  Li318  1  0.00862870  0.00433762  0.82818120  1
  Li  Li319  1  0.94201260  0.09957049  0.48260788  1
  Li  Li320  1  0.88784896  0.11995340  0.55782865  1
  Li  Li321  1  0.93530979  0.25279799  0.58284550  1
  Li  Li322  1  -0.00436541  0.12452460  0.62412844  1
  Li  Li323  1  0.97690770  0.28785765  0.65301221  1
  Li  Li324  1  0.07203473  0.15152454  0.72984455  1
  Li  Li325  1  0.94132477  0.30374820  0.75754497  1
  Li  Li326  1  -0.00426757  0.15784871  0.85905815  1
  Li  Li327  1  0.85912217  0.27586520  0.50335190  1
  Li  Li328  1  0.80122700  0.27954828  0.53944682  1
  Li  Li329  1  1.03814942  0.41526131  0.58760110  1
  Li  Li330  1  0.07513729  0.28971852  0.61720827  1
  Li  Li331  1  0.85903128  0.37902242  0.68510720  1
  Li  Li332  1  -0.03084213  0.30711079  0.71506367  1
  Li  Li333  1  0.84520636  0.31501542  0.79812376  1
  Li  Li334  1  0.01782967  0.22697883  0.81608156  1
  Li  Li335  1  0.93743895  0.45105025  0.51226028  1
  Li  Li336  1  0.74328504  0.46935567  0.52736491  1
  Li  Li337  1  0.90344045  0.56662577  0.58807362  1
  Li  Li338  1  0.07684417  0.49672698  0.63283805  1
  Li  Li339  1  0.96643850  0.53728852  0.66528372  1
  Li  Li340  1  -0.08218705  0.46918770  0.73663582  1
  Li  Li341  1  0.88525243  0.50121907  0.77942905  1
  Li  Li342  1  -0.01497838  0.46320687  0.82031699  1
  Li  Li343  1  0.86047159  0.57436634  0.46591789  1
  Li  Li344  1  0.85395048  0.61759332  0.54448432  1
  Li  Li345  1  0.96244553  0.75518255  0.60329721  1
  Li  Li346  1  0.05663253  0.69449224  0.64295452  1
  Li  Li347  1  0.91349660  0.78921023  0.70548687  1
  Li  Li348  1  0.00085350  0.65193784  0.73877268  1
  Li  Li349  1  0.88030483  0.71875154  0.77847377  1
  Li  Li350  1  -0.09827914  0.64282751  0.81279110  1
  Li  Li351  1  0.93780593  0.75723076  0.48810585  1
  Li  Li352  1  0.76082960  0.76907508  0.55822295  1
  Li  Li353  1  0.88890326  0.90384237  0.57804762  1
  Li  Li354  1  0.02865048  0.84393664  0.66738795  1
  Li  Li355  1  0.85293865  0.94036774  0.67255647  1
  Li  Li356  1  0.04836338  0.80205002  0.76783895  1
  Li  Li357  1  0.88046656  0.93280396  0.79340630  1
  Li  Li358  1  0.03350642  0.82277287  0.85546278  1
  Li  Li359  1  1.01160139  0.91757821  0.46631782  1
  La  La360  1  0.26985577  0.99146151  0.22318898  1
  La  La361  1  0.76527449  0.48914352  0.22478329  1
  La  La362  1  0.86631379  0.76090740  0.24387230  1
  La  La363  1  0.38020753  0.77019007  0.24497690  1
  La  La364  1  0.62868059  0.27023761  0.24690419  1
  La  La365  1  0.12241145  0.24900140  0.24468127  1
  La  La366  1  0.75581493  1.01559206  0.26693299  1
  La  La367  1  0.26087814  0.51655340  0.26772671  1
  La  La368  1  0.52020948  0.13082165  0.29188206  1
  La  La369  1  0.01529866  0.38386969  0.28848443  1
  La  La370  1  0.50217473  0.63927373  0.28876953  1
  La  La371  1  1.00952997  0.88259926  0.29083975  1
  La  La372  1  0.76411099  0.51764222  0.31043686  1
  La  La373  1  0.25757073  1.00808187  0.31465114  1
  La  La374  1  0.37924503  0.25155049  0.33540102  1
  La  La375  1  0.89109765  0.26114512  0.33588216  1
  La  La376  1  0.13275066  0.75562772  0.33637465  1
  La  La377  1  0.63355949  0.75707185  0.33511978  1
  La  La378  1  0.25409747  0.49877721  0.35762551  1
  La  La379  1  0.76281659  0.99664019  0.36156257  1
  La  La380  1  1.00826313  0.62703325  0.38159977  1
  La  La381  1  0.50896651  0.86559025  0.38213519  1
  La  La382  1  0.00888590  0.13399676  0.38263981  1
  La  La383  1  0.51596934  0.38120794  0.38001288  1
  La  La384  1  0.25881176  -0.00181887  0.40394073  1
  La  La385  1  0.76157145  0.49705568  0.40517426  1
  La  La386  1  0.88928914  0.77398229  0.42966846  1
  La  La387  1  0.37631729  0.76092397  0.42745895  1
  La  La388  1  0.63334227  0.24492626  0.42612010  1
  La  La389  1  0.12391996  0.27095740  0.42818975  1
  La  La390  1  0.76227497  0.01299064  0.44829637  1
  La  La391  1  0.26481568  0.51600254  0.44988996  1
  Zr  Zr392  1  0.98347610  0.00452759  0.24105945  1
  Zr  Zr393  1  0.51345396  0.02541382  0.24265509  1
  Zr  Zr394  1  0.49949124  0.50516318  0.24116801  1
  Zr  Zr395  1  0.01879386  0.48923588  0.23995439  1
  Zr  Zr396  1  0.76444483  0.25415804  0.29288764  1
  Zr  Zr397  1  0.75469417  0.76273110  0.29002794  1
  Zr  Zr398  1  0.25324462  0.23610087  0.28917082  1
  Zr  Zr399  1  0.25329976  0.76408683  0.29031944  1
  Zr  Zr400  1  0.50878419  0.50967143  0.33505178  1
  Zr  Zr401  1  0.00998963  0.50666331  0.33496223  1
  Zr  Zr402  1  0.01332095  0.00372065  0.33881859  1
  Zr  Zr403  1  0.50187026  1.00220454  0.33897943  1
  Zr  Zr404  1  0.24980128  0.74414124  0.38372929  1
  Zr  Zr405  1  0.25087237  0.27396551  0.38380286  1
  Zr  Zr406  1  0.76088390  0.75421920  0.38434808  1
  Zr  Zr407  1  0.76153414  0.25339200  0.38149404  1
  Zr  Zr408  1  0.02049049  0.01660090  0.42965567  1
  Zr  Zr409  1  0.49541679  0.00810483  0.42936170  1
  Zr  Zr410  1  0.51428117  0.48123000  0.42995528  1
  Zr  Zr411  1  0.99042077  0.50385551  0.43264179  1
  O  O412  1  0.83807457  0.94574694  0.23806331  1
  O  O413  1  0.66217724  0.08092684  0.23793586  1
  O  O414  1  0.17021926  0.42261810  0.23781006  1
  O  O415  1  0.34873271  0.54648448  0.23651111  1
  O  O416  1  0.37072477  0.95668023  0.24994483  1
  O  O417  1  0.14167588  0.05322038  0.24239937  1
  O  O418  1  0.65330733  0.45913815  0.25390622  1
  O  O419  1  0.87993420  0.54320650  0.25165919  1
  O  O420  1  0.48831922  0.15904369  0.25891602  1
  O  O421  1  0.02814996  0.85269578  0.24291444  1
  O  O422  1  0.99302188  0.34725179  0.25554336  1
  O  O423  1  0.52711506  0.65304736  0.25400640  1
  O  O424  1  0.79963102  0.18768644  0.26669443  1
  O  O425  1  0.72228108  0.81331770  0.26239937  1
  O  O426  1  0.28827117  0.24964635  0.25862972  1
  O  O427  1  0.23055513  0.71223311  0.26189094  1
  O  O428  1  0.96207579  0.01773670  0.26989629  1
  O  O429  1  0.57624419  0.98770004  0.27422284  1
  O  O430  1  0.07761853  0.53691514  0.27199449  1
  O  O431  1  0.43856380  0.47119574  0.27268886  1
  O  O432  1  0.10297703  0.20391809  0.27932706  1
  O  O433  1  0.39950756  0.80553166  0.28039062  1
  O  O434  1  0.61893478  0.29026117  0.28303786  1
  O  O435  1  0.90420018  0.73363039  0.27922477  1
  O  O436  1  0.29317668  0.08449889  0.28460893  1
  O  O437  1  0.18632909  0.89974839  0.28053512  1
  O  O438  1  0.82915818  0.39335618  0.28812623  1
  O  O439  1  0.69488275  0.62205566  0.28517357  1
  O  O440  1  0.20991313  0.38411548  0.29069658  1
  O  O441  1  0.31660581  0.62424402  0.29415984  1
  O  O442  1  0.70382994  0.11070013  0.30063738  1
  O  O443  1  0.80969123  0.91130369  0.29692204  1
  O  O444  1  0.40210931  0.27057590  0.30086055  1
  O  O445  1  0.10199988  0.73418395  0.30214059  1
  O  O446  1  0.91077257  0.20291284  0.30338620  1
  O  O447  1  0.61122455  0.80146036  0.30252924  1
  O  O448  1  0.95788650  0.54359982  0.30653559  1
  O  O449  1  0.55871926  0.47996450  0.30673208  1
  O  O450  1  0.07026650  0.01773430  0.31094604  1
  O  O451  1  0.44754455  0.98887027  0.31121092  1
  O  O452  1  0.72758475  0.31866173  0.32105925  1
  O  O453  1  0.79616281  0.70237944  0.31798595  1
  O  O454  1  0.22799883  0.19102022  0.31865819  1
  O  O455  1  0.27299850  0.82687349  0.31908778  1
  O  O456  1  0.03789191  0.35951762  0.32687632  1
  O  O457  1  0.47344294  0.65874276  0.32793388  1
  O  O458  1  0.53837831  0.15255032  0.33381354  1
  O  O459  1  0.97675517  0.85499838  0.33122851  1
  O  O460  1  0.35787059  0.45448773  0.32829814  1
  O  O461  1  0.15841189  0.55305340  0.32712398  1
  O  O462  1  0.65423249  0.95782902  0.33416277  1
  O  O463  1  0.86086926  0.03931889  0.33396407  1
  O  O464  1  0.85953717  0.46212224  0.34128461  1
  O  O465  1  0.65978361  0.56076986  0.34124364  1
  O  O466  1  0.15718105  0.95816914  0.34886312  1
  O  O467  1  0.35494213  0.05415334  0.34771053  1
  O  O468  1  0.97095712  0.64788256  0.34747836  1
  O  O469  1  0.54365075  0.36650255  0.34580134  1
  O  O470  1  0.47915115  0.85191053  0.34819393  1
  O  O471  1  0.03811518  0.15171024  0.34845403  1
  O  O472  1  0.27475487  0.68122908  0.35654837  1
  O  O473  1  0.22075280  0.31453375  0.35543765  1
  O  O474  1  0.79463721  0.81054125  0.35669794  1
  O  O475  1  0.72764427  0.18397187  0.35524791  1
  O  O476  1  0.45493313  0.53685314  0.36419242  1
  O  O477  1  0.07155393  0.48792765  0.36407650  1
  O  O478  1  0.55532563  0.02596127  0.36927151  1
  O  O479  1  0.95454206  0.97375768  0.36883631  1
  O  O480  1  0.60911132  0.71478128  0.37729555  1
  O  O481  1  0.91126356  0.29763714  0.37248378  1
  O  O482  1  0.10362208  0.77928409  0.37386304  1
  O  O483  1  0.40091259  0.23878808  0.37599694  1
  O  O484  1  0.80298792  0.60432222  0.37841793  1
  O  O485  1  0.71373548  0.40051946  0.37570322  1
  O  O486  1  0.32346039  0.88319821  0.38099473  1
  O  O487  1  0.19983948  0.12654889  0.38319714  1
  O  O488  1  0.71072131  0.89554020  0.39124243  1
  O  O489  1  0.82130919  0.12048367  0.39144621  1
  O  O490  1  0.18436572  0.61224549  0.39451067  1
  O  O491  1  0.29225029  0.42339656  0.38805611  1
  O  O492  1  0.91295719  0.78168874  0.39517499  1
  O  O493  1  0.61293464  0.22353960  0.39089235  1
  O  O494  1  0.39374186  0.69834943  0.39574485  1
  O  O495  1  0.10056732  0.30733061  0.39435378  1
  O  O496  1  0.43304401  0.05305984  0.40234653  1
  O  O497  1  0.07374506  0.97116934  0.40179401  1
  O  O498  1  0.58062418  0.52456536  0.40223009  1
  O  O499  1  0.95218982  0.48840397  0.40393082  1
  O  O500  1  0.22208943  0.80531052  0.41268844  1
  O  O501  1  0.28738366  0.25610598  0.41484537  1
  O  O502  1  0.73656068  0.70826954  0.41376683  1
  O  O503  1  0.79139538  0.31727309  0.41029716  1
  O  O504  1  0.52791239  0.85594178  0.42081498  1
  O  O505  1  0.99153994  0.15909470  0.41966184  1
  O  O506  1  0.02254975  0.65116668  0.43003935  1
  O  O507  1  0.48152237  0.34366581  0.41675884  1
  O  O508  1  0.87378373  0.96107737  0.42262042  1
  O  O509  1  0.64153360  0.05206468  0.42096490  1
  O  O510  1  0.14080410  0.45635750  0.42895988  1
  O  O511  1  0.36917695  0.52315089  0.42338581  1
  O  O512  1  0.35143227  0.94384631  0.43599421  1
  O  O513  1  0.16974014  0.06198241  0.43614842  1
  O  O514  1  0.64306303  0.40278769  0.43984034  1
  O  O515  1  0.83381245  0.52145362  0.43862106  1
  O  O516  1  0.41452671  0.09152578  0.22389490  1
  O  O517  1  0.58636107  0.52376778  0.21786068  1
  O  O518  1  0.93470526  0.44128976  0.21780136  1
  O  O519  1  0.24496836  0.83111112  0.22787677  1
  O  O520  1  0.73454241  0.66855506  0.23067442  1
  O  O521  1  0.77262164  0.30211578  0.22954272  1
  O  O522  1  0.56194081  0.88266180  0.23668718  1
  O  O523  1  0.94774851  0.14740021  0.23410195  1
  O  O524  1  0.08230510  0.62061668  0.23214076  1
  O  O525  1  0.46495190  0.35496497  0.23798517  1
  O  O526  1  0.45586383  0.14569077  0.43942122  1
  O  O527  1  0.05261150  0.86973620  0.43954262  1
  O  O528  1  0.97033205  0.35091390  0.44220240  1
  O  O529  1  0.58114828  0.61426149  0.43894055  1
  O  O530  1  0.78119564  0.18371314  0.44335570  1
  O  O531  1  0.72886945  0.83864964  0.44507113  1
  O  O532  1  0.24553978  0.67813827  0.44579211  1
  O  O533  1  0.96757474  0.05777959  0.45714569  1
  O  O534  1  0.55665880  0.97933351  0.45738494  1
  O  O535  1  0.45141744  0.47650298  0.45895745  1
