# generated using pymatgen
data_Li204La16Zr10O65
_symmetry_space_group_name_H-M   'P 1'
_cell_length_a   13.29080279
_cell_length_b   13.74155629
_cell_length_c   73.52029276
_cell_angle_alpha   89.91675539
_cell_angle_beta   90.10532478
_cell_angle_gamma   89.82828452
_symmetry_Int_Tables_number   1
_chemical_formula_structural   Li204La16Zr10O65
_chemical_formula_sum   'Li408 La32 Zr20 O130'
_cell_volume   13427.37805445
_cell_formula_units_Z   2
loop_
 _symmetry_equiv_pos_site_id
 _symmetry_equiv_pos_as_xyz
  1  'x, y, z'
loop_
 _atom_site_type_symbol
 _atom_site_label
 _atom_site_symmetry_multiplicity
 _atom_site_fract_x
 _atom_site_fract_y
 _atom_site_fract_z
 _atom_site_occupancy
  Li  Li0  1  0.96821512  0.90190575  0.20415264  1
  Li  Li1  1  0.59026439  0.04121906  0.20686333  1
  Li  Li2  1  0.05984485  0.49405800  0.19662340  1
  Li  Li3  1  0.26331521  0.65380646  0.19773811  1
  Li  Li4  1  0.59543504  0.69013645  0.21548311  1
  Li  Li5  1  0.89235758  0.35196325  0.21289861  1
  Li  Li6  1  0.15829464  0.83883453  0.20293721  1
  Li  Li7  1  0.43792314  0.15617106  0.22350617  1
  Li  Li8  1  0.69204960  0.83981885  0.22620131  1
  Li  Li9  1  0.79476387  0.00100560  0.21720876  1
  Li  Li10  1  0.11080115  0.65377414  0.21308670  1
  Li  Li11  1  0.23845227  0.49820720  0.21829025  1
  Li  Li12  1  0.86573845  0.22815384  0.23705776  1
  Li  Li13  1  0.63221888  0.72397217  0.24645123  1
  Li  Li14  1  0.34036211  0.30881947  0.23161177  1
  Li  Li15  1  0.13179829  0.75890830  0.23622711  1
  Li  Li16  1  0.35151940  0.16243496  0.25113086  1
  Li  Li17  1  0.18468474  0.88779989  0.25417424  1
  Li  Li18  1  0.84013992  0.39244392  0.25219304  1
  Li  Li19  1  0.73429860  0.54349770  0.25980699  1
  Li  Li20  1  0.43836981  0.33218228  0.26080132  1
  Li  Li21  1  0.09505591  0.66314827  0.26065431  1
  Li  Li22  1  0.92711207  0.13919247  0.26193728  1
  Li  Li23  1  0.53581536  0.84995242  0.27558264  1
  Li  Li24  1  0.35153796  0.94120160  0.26759201  1
  Li  Li25  1  0.18596528  0.05849718  0.26825263  1
  Li  Li26  1  0.58886528  0.42306194  0.27228093  1
  Li  Li27  1  0.93679913  0.57547936  0.27101614  1
  Li  Li28  1  0.42497189  0.41080666  0.29340059  1
  Li  Li29  1  0.13504300  0.58231762  0.29372405  1
  Li  Li30  1  0.67349500  0.93848253  0.29815595  1
  Li  Li31  1  0.84144256  0.05120607  0.29595101  1
  Li  Li32  1  0.03826315  0.13355153  0.29030271  1
  Li  Li33  1  0.42938571  0.84065486  0.30215050  1
  Li  Li34  1  0.58598428  0.31608384  0.29924895  1
  Li  Li35  1  0.95041827  0.66729746  0.29818322  1
  Li  Li36  1  0.22442741  0.42385345  0.30982817  1
  Li  Li37  1  0.33066441  0.58808233  0.30998404  1
  Li  Li38  1  0.67478684  0.11089565  0.31303390  1
  Li  Li39  1  0.83633927  0.90179770  0.31600370  1
  Li  Li40  1  0.38205717  0.74360993  0.32774751  1
  Li  Li41  1  0.13475555  0.23367553  0.32327958  1
  Li  Li42  1  0.88233596  0.73817353  0.32711385  1
  Li  Li43  1  0.63532414  0.25104226  0.32926570  1
  Li  Li44  1  0.80559593  0.58365150  0.33844875  1
  Li  Li45  1  0.70080686  0.42446902  0.33858430  1
  Li  Li46  1  0.30250511  0.91178511  0.34270994  1
  Li  Li47  1  0.21725917  0.07322087  0.34434614  1
  Li  Li48  1  0.92908658  0.83763893  0.35178095  1
  Li  Li49  1  0.57563841  0.15759569  0.35356227  1
  Li  Li50  1  0.43760622  0.65425887  0.35637924  1
  Li  Li51  1  0.07740339  0.33557134  0.34534880  1
  Li  Li52  1  0.87071654  0.41105442  0.35314981  1
  Li  Li53  1  0.62684675  0.58025654  0.35681919  1
  Li  Li54  1  0.08982865  0.91710409  0.35949487  1
  Li  Li55  1  0.41748896  0.07528435  0.36021892  1
  Li  Li56  1  0.87273200  0.93052235  0.38299263  1
  Li  Li57  1  0.64589395  0.07369790  0.38255001  1
  Li  Li58  1  0.17536453  0.44426094  0.38405204  1
  Li  Li59  1  0.33823916  0.54647420  0.38412267  1
  Li  Li60  1  0.53628949  0.63695451  0.38619377  1
  Li  Li61  1  0.99941156  0.37672111  0.37424895  1
  Li  Li62  1  0.06102852  0.82108617  0.38552829  1
  Li  Li63  1  0.43350993  0.17632882  0.38642658  1
  Li  Li64  1  0.67187462  0.90382147  0.40028600  1
  Li  Li65  1  0.84628914  0.10536201  0.40159604  1
  Li  Li66  1  0.16139899  0.61265366  0.40111418  1
  Li  Li67  1  0.35599928  0.37458723  0.39873058  1
  Li  Li68  1  0.91069490  0.28493673  0.40431911  1
  Li  Li69  1  0.63312006  0.73697205  0.40934461  1
  Li  Li70  1  0.37880899  0.23474863  0.41718146  1
  Li  Li71  1  0.13570100  0.76445086  0.41717864  1
  Li  Li72  1  0.30318228  0.06919579  0.43020048  1
  Li  Li73  1  0.21898976  0.91358974  0.43239812  1
  Li  Li74  1  0.81060312  0.40958400  0.42696798  1
  Li  Li75  1  0.71136127  0.57996090  0.42555117  1
  Li  Li76  1  0.43082275  0.34249468  0.43687059  1
  Li  Li77  1  0.09453505  0.64507840  0.43718655  1
  Li  Li78  1  0.93124252  0.17712818  0.43084431  1
  Li  Li79  1  0.58120140  0.84285222  0.43161781  1
  Li  Li80  1  0.39391891  0.93240894  0.44487654  1
  Li  Li81  1  0.01588629  0.91284562  0.44829875  1
  Li  Li82  1  0.60970165  0.42721951  0.44754465  1
  Li  Li83  1  0.89891925  0.56794584  0.44828670  1
  Li  Li84  1  0.94689328  0.96139964  0.55890483  1
  Li  Li85  1  0.08184148  0.12702822  0.57398185  1
  Li  Li86  1  0.18548038  0.08888367  0.61301067  1
  Li  Li87  1  0.09978843  0.18966683  0.64993163  1
  Li  Li88  1  0.14883439  0.04773396  0.67765941  1
  Li  Li89  1  0.11251480  0.12723028  0.77355572  1
  Li  Li90  1  0.15637558  0.05343221  0.80908410  1
  Li  Li91  1  0.07044340  0.08984018  0.84436904  1
  Li  Li92  1  0.13842570  0.04211010  0.48825094  1
  Li  Li93  1  0.95539945  0.14631581  0.54128388  1
  Li  Li94  1  0.10425891  0.28110746  0.54891883  1
  Li  Li95  1  0.22987197  0.29017688  0.62160074  1
  Li  Li96  1  0.00900956  0.18744703  0.69034117  1
  Li  Li97  1  0.09729409  0.15636835  0.72830576  1
  Li  Li98  1  0.14318885  0.30659792  0.75215183  1
  Li  Li99  1  0.12873989  0.24856444  0.82054418  1
  Li  Li100  1  0.13755487  0.17955891  0.87972747  1
  Li  Li101  1  0.09274716  0.22222374  0.47668938  1
  Li  Li102  1  -0.02659235  0.31231646  0.51874862  1
  Li  Li103  1  0.07709647  0.45473750  0.56828652  1
  Li  Li104  1  0.14069040  0.31328330  0.58978586  1
  Li  Li105  1  0.06296789  0.38207570  0.63049918  1
  Li  Li106  1  0.27890584  0.28369765  0.72100395  1
  Li  Li107  1  0.05052123  0.46990542  0.76933542  1
  Li  Li108  1  0.16032480  0.43334655  0.80454287  1
  Li  Li109  1  0.15581019  0.33651645  0.85560559  1
  Li  Li110  1  0.13144579  0.37678888  0.49561880  1
  Li  Li111  1  0.96574033  0.49226023  0.50064691  1
  Li  Li112  1  0.01405862  0.63054531  0.54156537  1
  Li  Li113  1  0.26938423  0.47378177  0.59795530  1
  Li  Li114  1  0.02289640  0.54728543  0.65246391  1
  Li  Li115  1  0.18410469  0.48102149  0.73224337  1
  Li  Li116  1  -0.04248264  0.56402187  0.80416756  1
  Li  Li117  1  0.24124217  0.49781922  0.83957598  1
  Li  Li118  1  0.08279036  0.56519174  0.86292797  1
  Li  Li119  1  0.07090416  0.54437500  0.46891014  1
  Li  Li120  1  0.99389388  0.69017737  0.50464723  1
  Li  Li121  1  0.10439179  0.73780355  0.59592785  1
  Li  Li122  1  0.12990899  0.72208386  0.63793706  1
  Li  Li123  1  0.01986201  0.70843961  0.68613467  1
  Li  Li124  1  0.09330412  0.50199068  0.68976528  1
  Li  Li125  1  0.10712858  0.66573503  0.74285543  1
  Li  Li126  1  0.12865577  0.63201167  0.82236008  1
  Li  Li127  1  0.14709498  0.77235470  0.85245049  1
  Li  Li128  1  0.11822236  0.75705259  0.47945362  1
  Li  Li129  1  0.07929867  0.79999518  0.56105949  1
  Li  Li130  1  0.02747663  0.95718754  0.59485996  1
  Li  Li131  1  0.20243397  0.88026353  0.61139991  1
  Li  Li132  1  0.02274245  0.88520747  0.66147561  1
  Li  Li133  1  0.08580623  0.82916160  0.71888141  1
  Li  Li134  1  0.06947487  0.94559684  0.78108909  1
  Li  Li135  1  0.19493064  0.82473715  0.80861373  1
  Li  Li136  1  0.11179285  0.95177465  0.87609813  1
  Li  Li137  1  -0.01214408  0.90738317  0.49217026  1
  Li  Li138  1  0.09954072  1.00470566  0.53201323  1
  Li  Li139  1  0.24731204  0.12155518  0.54606531  1
  Li  Li140  1  0.35865425  -0.01218830  0.63130540  1
  Li  Li141  1  0.30096043  0.15882409  0.65213387  1
  Li  Li142  1  0.25434226  0.05676525  0.71050872  1
  Li  Li143  1  0.27305300  0.13263030  0.74893175  1
  Li  Li144  1  0.27997804  -0.02817869  0.78046508  1
  Li  Li145  1  0.32210858  0.03532020  0.87584471  1
  Li  Li146  1  0.13639209  0.06768254  0.44534128  1
  Li  Li147  1  0.13280805  0.18686166  0.51489666  1
  Li  Li148  1  0.28488269  0.16432952  0.58465220  1
  Li  Li149  1  0.40179354  0.18036921  0.61889933  1
  Li  Li150  1  0.20450316  0.24749192  0.68679989  1
  Li  Li151  1  0.38831159  0.14368617  0.68585730  1
  Li  Li152  1  0.23754516  0.25884333  0.78665196  1
  Li  Li153  1  0.33367825  0.12662072  0.80974378  1
  Li  Li154  1  0.27884735  0.16940295  0.84650177  1
  Li  Li155  1  0.26154304  0.28033855  0.45586198  1
  Li  Li156  1  0.11639480  0.46774567  0.53046890  1
  Li  Li157  1  0.27006155  0.37990752  0.56136822  1
  Li  Li158  1  0.38777659  0.39084732  0.63390410  1
  Li  Li159  1  0.20897006  0.38929395  0.65997679  1
  Li  Li160  1  0.41649616  0.45522077  0.73453303  1
  Li  Li161  1  0.26683473  0.44136630  0.76988200  1
  Li  Li162  1  0.33514981  0.33456855  0.82609664  1
  Li  Li163  1  0.37500056  0.38406589  0.86607564  1
  Li  Li164  1  0.29476499  0.23749515  0.49248722  1
  Li  Li165  1  0.17614094  0.59450321  0.50140796  1
  Li  Li166  1  0.20196906  0.60458623  0.56620462  1
  Li  Li167  1  0.23134077  0.53510198  0.63473437  1
  Li  Li168  1  0.20386127  0.62703284  0.66886588  1
  Li  Li169  1  0.28736138  0.45833771  0.69827418  1
  Li  Li170  1  0.15460044  0.61912013  0.78418168  1
  Li  Li171  1  0.33612560  0.53605638  0.80382154  1
  Li  Li172  1  0.32611767  0.69344895  0.82954840  1
  Li  Li173  1  0.29410258  0.46297183  0.48374481  1
  Li  Li174  1  0.19226441  0.71597125  0.53219384  1
  Li  Li175  1  0.29039197  0.78309652  0.57210005  1
  Li  Li176  1  0.28899165  0.67251948  0.60589365  1
  Li  Li177  1  0.18132614  0.82898587  0.67955760  1
  Li  Li178  1  0.19208318  0.66032981  0.70820272  1
  Li  Li179  1  0.16887328  0.79718978  0.76842825  1
  Li  Li180  1  0.34222708  0.72567545  0.78665689  1
  Li  Li181  1  0.31680717  0.62485753  0.86663785  1
  Li  Li182  1  0.27298696  0.68877443  0.45719093  1
  Li  Li183  1  0.18115782  0.87455632  0.50727966  1
  Li  Li184  1  0.18928998  0.96055433  0.57223571  1
  Li  Li185  1  0.31689604  0.78728238  0.64696820  1
  Li  Li186  1  0.17394288  0.95891573  0.64482714  1
  Li  Li187  1  0.29630636  0.86135821  0.70923444  1
  Li  Li188  1  0.16692811  0.95981174  0.74350120  1
  Li  Li189  1  0.41173334  0.85977090  0.81542821  1
  Li  Li190  1  0.23368243  0.95168832  0.83998964  1
  Li  Li191  1  0.24952824  0.90363103  0.47009305  1
  Li  Li192  1  0.30347851  0.89229918  0.53819426  1
  Li  Li193  1  0.38587616  -0.00220651  0.57215655  1
  Li  Li194  1  0.49307557  0.01718064  0.60517852  1
  Li  Li195  1  0.51438971  0.02608628  0.65450815  1
  Li  Li196  1  0.47695282  -0.03600504  0.69968401  1
  Li  Li197  1  0.41941452  0.12607219  0.77431112  1
  Li  Li198  1  0.51182997  0.02318379  0.80364980  1
  Li  Li199  1  0.43021538  0.02294144  0.83986003  1
  Li  Li200  1  0.32085051  0.07866781  0.46922684  1
  Li  Li201  1  0.30034217  0.05818541  0.51112925  1
  Li  Li202  1  0.41317830  0.19660381  0.55616787  1
  Li  Li203  1  0.61870707  0.15135949  0.62240951  1
  Li  Li204  1  0.51227424  0.22653017  0.65164530  1
  Li  Li205  1  0.44663515  0.13450446  0.72358502  1
  Li  Li206  1  0.39272495  0.29824517  0.75459329  1
  Li  Li207  1  0.50475470  0.20965139  0.82235168  1
  Li  Li208  1  0.48205082  0.19434023  0.86367352  1
  Li  Li209  1  0.51259488  0.09942216  0.44660026  1
  Li  Li210  1  0.27144989  0.32235109  0.52597965  1
  Li  Li211  1  0.46178553  0.37894545  0.54609661  1
  Li  Li212  1  0.38801681  0.33230212  0.59066280  1
  Li  Li213  1  0.40225740  0.33772117  0.67400715  1
  Li  Li214  1  0.47744873  0.30276009  0.70964992  1
  Li  Li215  1  0.45821818  0.52840446  0.77328399  1
  Li  Li216  1  0.43001954  0.34124991  0.79232866  1
  Li  Li217  1  0.58166977  0.34896322  0.84258860  1
  Li  Li218  1  0.45698954  0.52631134  0.46354200  1
  Li  Li219  1  0.43071605  0.40738134  0.50842460  1
  Li  Li220  1  0.40265061  0.53620239  0.56871284  1
  Li  Li221  1  0.47551182  0.50604798  0.60531356  1
  Li  Li222  1  0.38362274  0.53398935  0.66506580  1
  Li  Li223  1  0.49338337  0.49830579  0.69640636  1
  Li  Li224  1  0.29980627  0.61340379  0.75381648  1
  Li  Li225  1  0.45394456  0.50929183  0.83522674  1
  Li  Li226  1  0.52483274  0.55754486  0.87345945  1
  Li  Li227  1  0.45199683  0.60448120  0.49833739  1
  Li  Li228  1  0.30931047  0.53279667  0.52946717  1
  Li  Li229  1  0.40126105  0.70028669  0.54426808  1
  Li  Li230  1  0.41923191  0.62767318  0.63247199  1
  Li  Li231  1  0.37374981  0.71692699  0.68408216  1
  Li  Li232  1  0.37993042  0.63366118  0.71900751  1
  Li  Li233  1  0.31049349  0.79800736  0.74403290  1
  Li  Li234  1  0.52985336  0.69741938  0.84290254  1
  Li  Li235  1  0.39099483  0.83457733  0.85991407  1
  Li  Li236  1  0.46527000  0.75384078  0.47214153  1
  Li  Li237  1  0.31817309  0.74074326  0.50135973  1
  Li  Li238  1  0.38859537  0.85676717  0.60144141  1
  Li  Li239  1  0.50188383  0.82316072  0.63254113  1
  Li  Li240  1  0.33784231  0.95518254  0.67143796  1
  Li  Li241  1  0.48873182  0.80173969  0.72170930  1
  Li  Li242  1  0.41090739  0.97249263  0.74148749  1
  Li  Li243  1  0.45561160  0.89118292  0.77498763  1
  Li  Li244  1  0.54873626  0.99011804  0.87315266  1
  Li  Li245  1  0.41770106  0.91983275  0.49524788  1
  Li  Li246  1  0.47063371  0.00279063  0.53207450  1
  Li  Li247  1  0.58116688  0.03614896  0.56352774  1
  Li  Li248  1  0.68562703  0.05125855  0.59450170  1
  Li  Li249  1  0.59195114  0.12543435  0.68741903  1
  Li  Li250  1  0.62308537  0.01690939  0.72360736  1
  Li  Li251  1  0.60556724  0.03521068  0.76693063  1
  Li  Li252  1  0.70907331  0.02302447  0.80502552  1
  Li  Li253  1  0.63226471  0.07642487  0.83896019  1
  Li  Li254  1  0.51349456  0.11258069  0.48987281  1
  Li  Li255  1  0.44002623  0.20539765  0.51955204  1
  Li  Li256  1  0.60290002  0.22789348  0.55111416  1
  Li  Li257  1  0.52053405  0.18075106  0.58677350  1
  Li  Li258  1  0.62126785  0.32787488  0.68067149  1
  Li  Li259  1  0.68542186  0.22065348  0.71465301  1
  Li  Li260  1  0.57945697  0.21083276  0.74791456  1
  Li  Li261  1  0.59648985  0.21522786  0.78775060  1
  Li  Li262  1  0.73720887  0.23160476  0.82025159  1
  Li  Li263  1  0.76951786  0.22223437  0.45128561  1
  Li  Li264  1  0.46838919  0.30544858  0.47721841  1
  Li  Li265  1  0.57692719  0.37390038  0.57703377  1
  Li  Li266  1  0.55774483  0.32111290  0.61400295  1
  Li  Li267  1  0.57145273  0.45779607  0.64764914  1
  Li  Li268  1  0.63991469  0.41555781  0.71994662  1
  Li  Li269  1  0.59830494  0.40364877  0.76146930  1
  Li  Li270  1  0.76769935  0.32127923  0.78449983  1
  Li  Li271  1  0.61153661  0.36536323  0.88121347  1
  Li  Li272  1  0.60613511  0.46207899  0.49134177  1
  Li  Li273  1  0.68210376  0.46059844  0.54300394  1
  Li  Li274  1  0.61178955  0.55973565  0.57518326  1
  Li  Li275  1  0.68422981  0.46086044  0.61270814  1
  Li  Li276  1  0.55557573  0.64927863  0.65992535  1
  Li  Li277  1  0.67671301  0.52087199  0.68098171  1
  Li  Li278  1  0.57650147  0.59697849  0.73465997  1
  Li  Li279  1  0.60600810  0.44557380  0.80455253  1
  Li  Li280  1  0.66219980  0.53661196  0.84310171  1
  Li  Li281  1  0.64705046  0.61088896  0.46806421  1
  Li  Li282  1  0.51797475  0.54869830  0.53277198  1
  Li  Li283  1  0.47790293  0.69485645  0.58838202  1
  Li  Li284  1  0.61171834  0.65485900  0.61777052  1
  Li  Li285  1  0.52236926  0.83682616  0.67235855  1
  Li  Li286  1  0.57064000  0.67800900  0.69731901  1
  Li  Li287  1  0.49265381  0.71485137  0.75959960  1
  Li  Li288  1  0.52146768  0.65965319  0.80541369  1
  Li  Li289  1  0.60363950  0.76920429  0.87732017  1
  Li  Li290  1  0.64853965  0.77396196  0.48637295  1
  Li  Li291  1  0.51621436  0.78704876  0.51772306  1
  Li  Li292  1  0.51515187  0.84268464  0.56301292  1
  Li  Li293  1  0.60763889  0.85910129  0.59923886  1
  Li  Li294  1  0.65555852  0.96103698  0.63013204  1
  Li  Li295  1  0.68609416  0.83329108  0.70917521  1
  Li  Li296  1  0.61224479  0.86481960  0.74808638  1
  Li  Li297  1  0.63031951  0.83061612  0.79214835  1
  Li  Li298  1  0.60150120  0.87881717  0.83543264  1
  Li  Li299  1  0.57507619  0.94203818  0.46543050  1
  Li  Li300  1  0.63025301  0.94678485  0.50263169  1
  Li  Li301  1  0.76938969  0.08921220  0.55260654  1
  Li  Li302  1  0.82809544  -0.06729128  0.60728086  1
  Li  Li303  1  0.71865390  0.11463517  0.65685287  1
  Li  Li304  1  0.80139381  0.05764580  0.70054750  1
  Li  Li305  1  0.77010116  0.09762118  0.74281372  1
  Li  Li306  1  0.89152301  -0.04926815  0.79299174  1
  Li  Li307  1  0.84936539  0.05438012  0.83443402  1
  Li  Li308  1  0.74628462  0.08953705  0.48434012  1
  Li  Li309  1  0.63766359  0.11070175  0.52225804  1
  Li  Li310  1  0.71930095  0.22446095  0.58123738  1
  Li  Li311  1  0.81687051  0.10671259  0.62345124  1
  Li  Li312  1  0.70223933  0.30317793  0.64273893  1
  Li  Li313  1  0.81069872  0.23525162  0.68220498  1
  Li  Li314  1  0.76661220  0.30317900  0.74703908  1
  Li  Li315  1  0.79770618  0.12864047  0.77863325  1
  Li  Li316  1  0.71931297  0.18456424  0.86458722  1
  Li  Li317  1  0.66901124  0.27263274  0.48410617  1
  Li  Li318  1  0.60824627  0.31937667  0.51850150  1
  Li  Li319  1  0.78184795  0.41780200  0.57708799  1
  Li  Li320  1  0.80473917  0.29040508  0.60986535  1
  Li  Li321  1  0.80925877  0.41346580  0.66462856  1
  Li  Li322  1  0.84254039  0.39523862  0.70555099  1
  Li  Li323  1  0.77341767  0.50903353  0.74419131  1
  Li  Li324  1  0.80868101  0.42753886  0.81878114  1
  Li  Li325  1  0.78142721  0.37608983  0.85524260  1
  Li  Li326  1  0.78514347  0.41570195  0.51039330  1
  Li  Li327  1  0.65398272  0.62131127  0.50966707  1
  Li  Li328  1  0.80719639  0.59511609  0.56119924  1
  Li  Li329  1  0.87269854  0.44903875  0.63097426  1
  Li  Li330  1  0.75564727  0.58993753  0.64517725  1
  Li  Li331  1  0.75379306  0.60086263  0.71187805  1
  Li  Li332  1  0.65530502  0.60965985  0.77466624  1
  Li  Li333  1  0.82361077  0.49747399  0.77982425  1
  Li  Li334  1  0.75588907  0.56321039  0.87989392  1
  Li  Li335  1  0.79071816  0.43674016  0.47242241  1
  Li  Li336  1  0.64376005  0.69735165  0.54529578  1
  Li  Li337  1  0.70481556  0.73072887  0.58149621  1
  Li  Li338  1  0.80736956  0.58468951  0.59933651  1
  Li  Li339  1  0.68566892  0.79082900  0.64906461  1
  Li  Li340  1  0.75662749  0.71917223  0.68026787  1
  Li  Li341  1  0.74852475  0.72501814  0.74515182  1
  Li  Li342  1  0.74434394  0.64038187  0.81387211  1
  Li  Li343  1  0.75409761  0.73149353  0.85111830  1
  Li  Li344  1  0.73411149  0.77039273  0.45004398  1
  Li  Li345  1  0.67098402  0.89878507  0.53782832  1
  Li  Li346  1  0.75351441  0.91315056  0.57187029  1
  Li  Li347  1  0.78512625  0.76090645  0.61847749  1
  Li  Li348  1  0.69311850  0.94293963  0.67584324  1
  Li  Li349  1  0.84056128  0.91865459  0.72791042  1
  Li  Li350  1  0.78197720  0.92285411  0.76464864  1
  Li  Li351  1  0.80170843  0.85206166  0.82120411  1
  Li  Li352  1  0.75318527  0.94196775  0.86478168  1
  Li  Li353  1  0.79941808  0.90873905  0.47935757  1
  Li  Li354  1  0.83888521  -0.01544948  0.52091253  1
  Li  Li355  1  0.88225855  0.09698708  0.58613853  1
  Li  Li356  1  0.00029723  0.03573708  0.63054925  1
  Li  Li357  1  0.92353536  0.06323165  0.66695538  1
  Li  Li358  1  0.01644597  0.00255219  0.70723974  1
  Li  Li359  1  0.96542931  0.03620130  0.75054570  1
  Li  Li360  1  0.02387877  -0.08219785  0.82219440  1
  Li  Li361  1  0.92217091  0.10985743  0.87294146  1
  Li  Li362  1  0.95802447  0.10543216  0.50180597  1
  Li  Li363  1  0.79549062  0.20740760  0.51342658  1
  Li  Li364  1  0.93622488  0.27786793  0.57277669  1
  Li  Li365  1  0.00560058  0.21022284  0.61051574  1
  Li  Li366  1  0.90236037  0.24220136  0.64582386  1
  Li  Li367  1  -0.09882032  0.20713203  0.72237589  1
  Li  Li368  1  0.94854679  0.23552885  0.76307184  1
  Li  Li369  1  -0.04261551  0.13604696  0.80429077  1
  Li  Li370  1  0.93170310  0.25108007  0.84018116  1
  Li  Li371  1  0.90269000  0.28352434  0.48310321  1
  Li  Li372  1  0.79171481  0.28915931  0.54572456  1
  Li  Li373  1  0.91723692  0.44385201  0.54556290  1
  Li  Li374  1  -0.04963021  0.42626069  0.59762440  1
  Li  Li375  1  1.00305606  0.35837504  0.67096061  1
  Li  Li376  1  0.06748475  0.34532996  0.71212089  1
  Li  Li377  1  0.94698600  0.39874695  0.74200941  1
  Li  Li378  1  -0.02776139  0.33851337  0.79666950  1
  Li  Li379  1  0.96162297  0.37009460  0.87477512  1
  Li  Li380  1  1.01001228  0.38492498  0.44800879  1
  Li  Li381  1  0.83385497  0.59904205  0.52482635  1
  Li  Li382  1  0.97744726  0.60980009  0.57808787  1
  Li  Li383  1  0.09985613  0.54272479  0.60672703  1
  Li  Li384  1  0.89017207  0.56155232  0.68265898  1
  Li  Li385  1  -0.02083498  0.55237570  0.71989785  1
  Li  Li386  1  0.92977674  0.62801739  0.75849585  1
  Li  Li387  1  0.02025571  0.43379100  0.83319505  1
  Li  Li388  1  0.88001827  0.55555935  0.84748032  1
  Li  Li389  1  0.81769964  0.61644535  0.48653875  1
  Li  Li390  1  0.80106327  0.78906473  0.51064810  1
  Li  Li391  1  0.85036407  0.77686484  0.54885129  1
  Li  Li392  1  -0.04795105  0.63695984  0.62041843  1
  Li  Li393  1  0.90653097  0.72537944  0.65361773  1
  Li  Li394  1  -0.09783922  0.73300048  0.71823710  1
  Li  Li395  1  0.81467078  0.74176200  0.78323141  1
  Li  Li396  1  -0.04541283  0.72284708  0.83301776  1
  Li  Li397  1  0.93416554  0.72396863  0.87501910  1
  Li  Li398  1  0.91810452  0.75020013  0.46983052  1
  Li  Li399  1  1.00203098  0.83697019  0.52675526  1
  Li  Li400  1  0.90666369  0.78650138  0.58628449  1
  Li  Li401  1  -0.00950476  0.83802572  0.62397859  1
  Li  Li402  1  0.83609113  0.92294652  0.64641616  1
  Li  Li403  1  -0.11552809  0.87229867  0.68847063  1
  Li  Li404  1  0.96729437  0.82708926  0.75472335  1
  Li  Li405  1  0.00239832  0.75901342  0.79476930  1
  Li  Li406  1  0.94518674  0.90036626  0.85476767  1
  Li  Li407  1  0.94499420  0.07741400  0.46436104  1
  La  La408  1  0.26716073  1.01518465  0.22016882  1
  La  La409  1  0.74579919  0.51869707  0.22156746  1
  La  La410  1  0.88675641  0.74245253  0.24051419  1
  La  La411  1  0.36435142  0.73470285  0.23745440  1
  La  La412  1  0.63029650  0.27719272  0.24036355  1
  La  La413  1  0.12268222  0.24140964  0.24094081  1
  La  La414  1  0.74701533  0.99210997  0.25946076  1
  La  La415  1  0.25865799  0.47992497  0.26166818  1
  La  La416  1  0.51071370  0.11409388  0.27860918  1
  La  La417  1  0.01224082  0.37055358  0.28229079  1
  La  La418  1  0.50177258  0.62513660  0.28135941  1
  La  La419  1  0.00332842  0.87774037  0.28125840  1
  La  La420  1  0.76064730  0.50642347  0.30107038  1
  La  La421  1  0.25798670  -0.00139203  0.30547811  1
  La  La422  1  0.38860081  0.23722015  0.32559916  1
  La  La423  1  0.88163475  0.23361023  0.32397623  1
  La  La424  1  0.12851767  0.75621303  0.32630773  1
  La  La425  1  0.63226791  0.74962631  0.32514604  1
  La  La426  1  0.26698241  0.49737592  0.34582494  1
  La  La427  1  0.75653946  0.00433326  0.34937963  1
  La  La428  1  -0.00213582  0.61336199  0.36662276  1
  La  La429  1  0.50873807  0.86727186  0.36914786  1
  La  La430  1  0.01301771  0.12979530  0.36907146  1
  La  La431  1  0.51455800  0.37641404  0.36671581  1
  La  La432  1  0.25427026  0.97949631  0.38966053  1
  La  La433  1  0.75986073  0.49456074  0.38885325  1
  La  La434  1  0.87848332  0.74668386  0.41230443  1
  La  La435  1  0.37680451  0.73541065  0.41211122  1
  La  La436  1  0.63899879  0.24778756  0.41145426  1
  La  La437  1  0.14753741  0.25263055  0.41093910  1
  La  La438  1  0.75604947  0.99928018  0.43233898  1
  La  La439  1  0.26025822  0.48957420  0.43292614  1
  Zr  Zr440  1  1.01210828  0.98762129  0.23681338  1
  Zr  Zr441  1  0.51416301  0.95320386  0.23594727  1
  Zr  Zr442  1  0.49595144  0.50608406  0.23787479  1
  Zr  Zr443  1  0.01611142  0.49271169  0.23832586  1
  Zr  Zr444  1  0.75909457  0.23753005  0.28165921  1
  Zr  Zr445  1  0.75940974  0.75571993  0.28335321  1
  Zr  Zr446  1  0.26356495  0.23824213  0.28340810  1
  Zr  Zr447  1  0.25673030  0.75771740  0.28398665  1
  Zr  Zr448  1  0.51370157  0.50177704  0.32465034  1
  Zr  Zr449  1  -0.00002253  0.49226183  0.32463155  1
  Zr  Zr450  1  0.01223684  0.00022504  0.32770706  1
  Zr  Zr451  1  0.50667504  -0.00399856  0.32777749  1
  Zr  Zr452  1  0.24950011  0.73183350  0.37003506  1
  Zr  Zr453  1  0.25994587  0.25997247  0.36864872  1
  Zr  Zr454  1  0.75545724  0.74611008  0.37050399  1
  Zr  Zr455  1  0.76311009  0.24740901  0.36998820  1
  Zr  Zr456  1  0.02737541  0.00777423  0.41381667  1
  Zr  Zr457  1  0.48833385  0.99588195  0.41266397  1
  Zr  Zr458  1  0.51812749  0.49258029  0.41470629  1
  Zr  Zr459  1  0.99675485  0.49935840  0.41586611  1
  O  O460  1  0.23220316  0.75526556  0.21619651  1
  O  O461  1  0.29060592  0.17407931  0.22703265  1
  O  O462  1  0.73659074  0.68957020  0.22604771  1
  O  O463  1  0.78181335  0.33650374  0.22797494  1
  O  O464  1  0.54312968  0.81388341  0.22851125  1
  O  O465  1  0.98200419  0.13785749  0.23551272  1
  O  O466  1  0.03899249  0.64584695  0.23552806  1
  O  O467  1  0.47454851  0.35555554  0.23462404  1
  O  O468  1  0.88588748  0.90973346  0.22484547  1
  O  O469  1  0.66680485  -0.01313447  0.22747067  1
  O  O470  1  0.15574852  0.41986016  0.23547014  1
  O  O471  1  0.34497949  0.55124289  0.23508638  1
  O  O472  1  0.36027845  0.91776855  0.24161884  1
  O  O473  1  0.15814396  0.02431262  0.24451650  1
  O  O474  1  0.64412915  0.45902461  0.24797384  1
  O  O475  1  0.86450358  0.53578344  0.24802040  1
  O  O476  1  0.49983792  0.14540914  0.24730281  1
  O  O477  1  0.04175625  0.85024960  0.24995230  1
  O  O478  1  0.98088678  0.34878655  0.25071653  1
  O  O479  1  0.51312710  0.64567787  0.25074179  1
  O  O480  1  0.77956954  0.17402232  0.25575988  1
  O  O481  1  0.73704279  0.81442795  0.25679264  1
  O  O482  1  0.30006468  0.29676048  0.25783604  1
  O  O483  1  0.22143518  0.73737657  0.25686143  1
  O  O484  1  0.92778972  0.00137024  0.26263669  1
  O  O485  1  0.55779135  0.96523429  0.26295286  1
  O  O486  1  0.07636364  0.52504627  0.26670775  1
  O  O487  1  0.44506964  0.46866576  0.26832239  1
  O  O488  1  0.12186326  0.19270790  0.27229213  1
  O  O489  1  0.40730274  0.78641652  0.27792645  1
  O  O490  1  0.61063685  0.27891110  0.27332649  1
  O  O491  1  0.90709087  0.71825667  0.27381097  1
  O  O492  1  0.32265513  0.09747186  0.27492434  1
  O  O493  1  0.21408287  0.90988561  0.27902350  1
  O  O494  1  0.81132529  0.37955890  0.27889199  1
  O  O495  1  0.68796923  0.61928307  0.27861969  1
  O  O496  1  0.19368102  0.37386156  0.28754753  1
  O  O497  1  0.28500091  0.60797225  0.28633937  1
  O  O498  1  0.69656949  0.08231008  0.28731411  1
  O  O499  1  0.81510337  0.89783749  0.29061239  1
  O  O500  1  0.41387789  0.26920762  0.29392242  1
  O  O501  1  0.10298811  0.72724770  0.29484750  1
  O  O502  1  0.90615987  0.19293548  0.29047610  1
  O  O503  1  0.61790473  0.79994406  0.29493183  1
  O  O504  1  0.95125297  0.52293660  0.29781664  1
  O  O505  1  0.57431287  0.46055985  0.29919691  1
  O  O506  1  0.06451275  0.01208188  0.30146218  1
  O  O507  1  0.44801289  0.97979325  0.30208980  1
  O  O508  1  0.72091696  0.26022872  0.30882942  1
  O  O509  1  0.79688817  0.68761761  0.30861955  1
  O  O510  1  0.24203052  0.17527022  0.30980207  1
  O  O511  1  0.28655559  0.81319728  0.31180569  1
  O  O512  1  0.02516612  0.34071129  0.31897426  1
  O  O513  1  0.47094972  0.64418830  0.31564648  1
  O  O514  1  0.53997586  0.14440106  0.32427282  1
  O  O515  1  0.97249834  0.85116147  0.32367562  1
  O  O516  1  0.36401351  0.45370913  0.31824510  1
  O  O517  1  0.15120667  0.53326924  0.32036310  1
  O  O518  1  0.65904446  0.95688310  0.32355449  1
  O  O519  1  0.86295377  0.04873068  0.32232739  1
  O  O520  1  0.84172949  0.45033186  0.32903239  1
  O  O521  1  0.65680362  0.56233634  0.33163648  1
  O  O522  1  0.15755678  0.94821528  0.33628299  1
  O  O523  1  0.35912884  0.04082356  0.33667315  1
  O  O524  1  0.97273417  0.63620694  0.33502003  1
  O  O525  1  0.55392681  0.36111408  0.33543440  1
  O  O526  1  0.48393916  0.84507665  0.33640545  1
  O  O527  1  0.04427096  0.14304449  0.33738801  1
  O  O528  1  0.29403248  0.67634614  0.34474034  1
  O  O529  1  0.22401311  0.31329773  0.34253909  1
  O  O530  1  0.78715203  0.79653706  0.34446133  1
  O  O531  1  0.72500758  0.18258714  0.34563234  1
  O  O532  1  0.46194184  0.52276784  0.35182609  1
  O  O533  1  0.02590632  0.46001152  0.35286007  1
  O  O534  1  0.56206872  0.01852305  0.35705758  1
  O  O535  1  0.95025995  0.97554274  0.35601773  1
  O  O536  1  0.60181160  0.71242209  0.36490125  1
  O  O537  1  0.91032524  0.27742572  0.36113535  1
  O  O538  1  0.10316247  0.77294764  0.36102561  1
  O  O539  1  0.41062165  0.22128982  0.36074687  1
  O  O540  1  0.80780251  0.60193390  0.36424458  1
  O  O541  1  0.71925113  0.39301130  0.36354386  1
  O  O542  1  0.32198101  0.87062538  0.36741750  1
  O  O543  1  0.20155476  0.11501322  0.36892381  1
  O  O544  1  0.71737956  0.89040647  0.37666907  1
  O  O545  1  0.80164788  0.10490772  0.37771878  1
  O  O546  1  0.19121129  0.58748226  0.37576621  1
  O  O547  1  0.31637312  0.40776229  0.37381756  1
  O  O548  1  0.90796750  0.78063650  0.38127939  1
  O  O549  1  0.60843836  0.21698028  0.38029575  1
  O  O550  1  0.39375193  0.68422051  0.38143066  1
  O  O551  1  0.11732268  0.30107103  0.38016022  1
  O  O552  1  0.42676874  0.03293694  0.38763676  1
  O  O553  1  0.07473196  0.96519923  0.38765792  1
  O  O554  1  0.57501835  0.49982600  0.38730244  1
  O  O555  1  0.94528731  0.48402545  0.38933855  1
  O  O556  1  0.21379066  0.78003753  0.39618913  1
  O  O557  1  0.30331326  0.23723912  0.39579719  1
  O  O558  1  0.74331952  0.67539387  0.39761540  1
  O  O559  1  0.77876174  0.31400434  0.39726589  1
  O  O560  1  0.53557598  0.85076281  0.40426869  1
  O  O561  1  0.98286816  0.15704964  0.40451988  1
  O  O562  1  0.03422348  0.65499088  0.41233373  1
  O  O563  1  0.48504990  0.33498973  0.41100852  1
  O  O564  1  0.87721284  0.96526209  0.40943378  1
  O  O565  1  0.63733731  0.03863792  0.40802596  1
  O  O566  1  0.14615832  0.46346443  0.40943289  1
  O  O567  1  0.36461157  0.51343925  0.40848284  1
  O  O568  1  0.34840751  0.91743191  0.41864591  1
  O  O569  1  0.17229328  0.08205629  0.41781045  1
  O  O570  1  0.66414514  0.44431350  0.42280659  1
  O  O571  1  0.85372115  0.55124854  0.42378991  1
  O  O572  1  0.43640787  0.11939282  0.42527919  1
  O  O573  1  0.08164009  0.88305171  0.42584596  1
  O  O574  1  0.96423825  0.35463919  0.42382205  1
  O  O575  1  0.53515576  0.64170716  0.41514804  1
  O  O576  1  0.78258972  0.16424409  0.42860711  1
  O  O577  1  0.72343534  0.82654999  0.42639053  1
  O  O578  1  0.28216357  0.31764790  0.43245577  1
  O  O579  1  0.23993281  0.66760332  0.43109990  1
  O  O580  1  0.17009926  0.56174483  0.19997721  1
  O  O581  1  0.57564397  0.55137378  0.21623852  1
  O  O582  1  0.45638796  0.02839833  0.21419157  1
  O  O583  1  0.09151374  0.94713685  0.21223203  1
  O  O584  1  0.94959083  0.47133993  0.21367153  1
  O  O585  1  0.98766955  0.05119118  0.44091785  1
  O  O586  1  0.05264172  0.51864874  0.44386163  1
  O  O587  1  0.46802802  0.46915981  0.44165943  1
  O  O588  1  0.54270874  0.96365665  0.44075370  1
  O  O589  1  0.26453848  0.99646213  0.45193452  1
