# generated using pymatgen
data_Li101La8Zr5O32
_symmetry_space_group_name_H-M   'P 1'
_cell_length_a   13.31047081
_cell_length_b   13.72752483
_cell_length_c   72.11576368
_cell_angle_alpha   89.92121385
_cell_angle_beta   89.99605561
_cell_angle_gamma   89.90879108
_symmetry_Int_Tables_number   1
_chemical_formula_structural   Li101La8Zr5O32
_chemical_formula_sum   'Li404 La32 Zr20 O128'
_cell_volume   13176.95007053
_cell_formula_units_Z   4
loop_
 _symmetry_equiv_pos_site_id
 _symmetry_equiv_pos_as_xyz
  1  'x, y, z'
loop_
 _atom_site_type_symbol
 _atom_site_label
 _atom_site_symmetry_multiplicity
 _atom_site_fract_x
 _atom_site_fract_y
 _atom_site_fract_z
 _atom_site_occupancy
  Li  Li0  1  0.77002109  0.88319064  0.21285493  1
  Li  Li1  1  0.79123694  0.11444995  0.21799550  1
  Li  Li2  1  0.18153121  0.59215419  0.22507387  1
  Li  Li3  1  0.33660774  0.41898645  0.21726919  1
  Li  Li4  1  0.87628238  0.24500462  0.23965273  1
  Li  Li5  1  0.64271715  0.76638055  0.23418744  1
  Li  Li6  1  0.38065717  0.26379036  0.23919984  1
  Li  Li7  1  0.13527331  0.75500806  0.23758849  1
  Li  Li8  1  0.33296895  0.11175070  0.25212202  1
  Li  Li9  1  0.18250692  0.91551964  0.24761679  1
  Li  Li10  1  0.81398391  0.41062027  0.25369862  1
  Li  Li11  1  0.69608825  0.57230160  0.24868482  1
  Li  Li12  1  0.44020350  0.33464480  0.26821256  1
  Li  Li13  1  0.08597493  0.63904020  0.26135074  1
  Li  Li14  1  0.92304109  0.15681505  0.26735509  1
  Li  Li15  1  0.57539300  0.84969011  0.26083668  1
  Li  Li16  1  0.35119264  0.91055292  0.26439112  1
  Li  Li17  1  0.09417008  0.07585899  0.26777581  1
  Li  Li18  1  0.60960616  0.41683596  0.26754348  1
  Li  Li19  1  0.85820573  0.58160063  0.26675756  1
  Li  Li20  1  0.33810076  0.43765459  0.29618803  1
  Li  Li21  1  0.16810041  0.54896938  0.29404363  1
  Li  Li22  1  0.66769391  0.94501107  0.29386878  1
  Li  Li23  1  0.83544244  0.05555306  0.29505142  1
  Li  Li24  1  0.04410335  0.15467895  0.29607607  1
  Li  Li25  1  0.46567132  0.83684159  0.29071733  1
  Li  Li26  1  0.54358087  0.34422433  0.29669286  1
  Li  Li27  1  0.97202675  0.65705017  0.29115417  1
  Li  Li28  1  0.17169185  0.39951749  0.31583182  1
  Li  Li29  1  0.34526692  0.61696508  0.30864845  1
  Li  Li30  1  0.67042259  0.09932830  0.31577095  1
  Li  Li31  1  0.84267238  0.87716751  0.30889171  1
  Li  Li32  1  0.38102735  0.75226295  0.32649510  1
  Li  Li33  1  0.12736776  0.23686842  0.32502600  1
  Li  Li34  1  0.88396014  0.74498681  0.32679088  1
  Li  Li35  1  0.62790502  0.26126256  0.32546541  1
  Li  Li36  1  0.79473042  0.58228177  0.34174231  1
  Li  Li37  1  0.69233687  0.42143270  0.33934434  1
  Li  Li38  1  0.30006953  0.91387587  0.34048516  1
  Li  Li39  1  0.19320867  0.07576131  0.33686990  1
  Li  Li40  1  0.93413295  0.83477888  0.35787682  1
  Li  Li41  1  0.58339183  0.14842795  0.34757724  1
  Li  Li42  1  0.42888873  0.66719107  0.35678797  1
  Li  Li43  1  0.08287107  0.34856758  0.34731665  1
  Li  Li44  1  0.85363410  0.40854730  0.35659666  1
  Li  Li45  1  0.59443863  0.58436790  0.35689498  1
  Li  Li46  1  0.10574258  0.91027980  0.35569368  1
  Li  Li47  1  0.34994249  0.08565062  0.35535227  1
  Li  Li48  1  0.82915727  0.94377404  0.38554672  1
  Li  Li49  1  0.66192313  0.04621819  0.38228831  1
  Li  Li50  1  0.16224111  0.44791174  0.38291410  1
  Li  Li51  1  0.33461058  0.55874995  0.38555719  1
  Li  Li52  1  0.53596656  0.65142014  0.38613663  1
  Li  Li53  1  0.99348206  0.37277949  0.37307404  1
  Li  Li54  1  0.03266495  0.85560832  0.38802342  1
  Li  Li55  1  0.48985607  0.12286968  0.37310157  1
  Li  Li56  1  0.65360499  0.89907187  0.40409102  1
  Li  Li57  1  0.84124562  0.12427608  0.39830131  1
  Li  Li58  1  0.15357112  0.59913878  0.40397156  1
  Li  Li59  1  0.33405561  0.38217053  0.40108299  1
  Li  Li60  1  0.90398843  0.30786619  0.40060797  1
  Li  Li61  1  0.62283091  0.73412089  0.41480030  1
  Li  Li62  1  0.40340743  0.20365706  0.40190904  1
  Li  Li63  1  0.12531723  0.76220974  0.41415197  1
  Li  Li64  1  0.29650416  0.09542417  0.42862031  1
  Li  Li65  1  0.19313161  0.92505266  0.42661415  1
  Li  Li66  1  0.79808586  0.40531245  0.42899121  1
  Li  Li67  1  0.68950867  0.57101471  0.42767757  1
  Li  Li68  1  0.41233302  0.30159826  0.43111683  1
  Li  Li69  1  0.06961728  0.64353592  0.43645100  1
  Li  Li70  1  0.89331748  0.21533061  0.42993775  1
  Li  Li71  1  0.57283808  0.85522865  0.43612483  1
  Li  Li72  1  0.09489373  0.08798051  0.44706378  1
  Li  Li73  1  0.60783701  0.40100398  0.44521881  1
  Li  Li74  1  0.58414838  0.07545563  0.20306390  1
  Li  Li75  1  0.09019205  0.41891674  0.20399918  1
  Li  Li76  1  0.67175461  0.65713599  0.20623328  1
  Li  Li77  1  0.92405072  0.27178432  0.21046748  1
  Li  Li78  1  0.13692528  0.85024025  0.20866529  1
  Li  Li79  1  0.41110197  0.20389406  0.21114781  1
  Li  Li80  1  0.01256257  0.88677142  0.50309200  1
  Li  Li81  1  0.09430016  0.96509606  0.56739459  1
  Li  Li82  1  0.11950952  0.03880846  0.60971156  1
  Li  Li83  1  0.07915505  0.14365510  0.64734317  1
  Li  Li84  1  0.21624325  -0.00355069  0.74227050  1
  Li  Li85  1  0.09854775  0.21858840  0.76398456  1
  Li  Li86  1  0.20519468  0.00993616  0.81851095  1
  Li  Li87  1  -0.02135497  0.21203497  0.85918139  1
  Li  Li88  1  0.09766528  0.05527421  0.50090806  1
  Li  Li89  1  -0.02887720  0.02313109  0.53671855  1
  Li  Li90  1  0.03182338  0.21608845  0.54992087  1
  Li  Li91  1  0.15930180  0.14340700  0.57784483  1
  Li  Li92  1  0.06689808  0.30932886  0.66967809  1
  Li  Li93  1  0.19465066  0.13428327  0.71305685  1
  Li  Li94  1  0.08632948  0.28607700  0.73087891  1
  Li  Li95  1  0.07547001  0.13066856  0.79847938  1
  Li  Li96  1  0.09540398  0.26494723  0.82571133  1
  Li  Li97  1  0.10627575  0.21784428  0.48025017  1
  Li  Li98  1  -0.02746831  0.19222841  0.51447398  1
  Li  Li99  1  0.11965861  0.34755730  0.57698484  1
  Li  Li100  1  0.15426529  0.32687728  0.63265482  1
  Li  Li101  1  0.07728790  0.49725618  0.68132368  1
  Li  Li102  1  0.17454879  0.35510627  0.70265119  1
  Li  Li103  1  0.08963037  0.42685793  0.75853902  1
  Li  Li104  1  0.21672190  0.31157557  0.78640526  1
  Li  Li105  1  -0.01834433  0.46044400  0.86273547  1
  Li  Li106  1  -0.00497171  0.37791778  0.44995537  1
  Li  Li107  1  0.03958076  0.42094305  0.54381827  1
  Li  Li108  1  0.13860466  0.54738684  0.58035416  1
  Li  Li109  1  0.25115989  0.46169650  0.60813015  1
  Li  Li110  1  0.14405641  0.67249405  0.65845228  1
  Li  Li111  1  0.13664752  0.53809080  0.72159089  1
  Li  Li112  1  0.02495297  0.61191185  0.75646615  1
  Li  Li113  1  0.14502191  0.51019142  0.79136739  1
  Li  Li114  1  0.23824937  0.51989341  0.85664474  1
  Li  Li115  1  0.02943664  0.54710053  0.50978837  1
  Li  Li116  1  0.04669633  0.61590359  0.54768944  1
  Li  Li117  1  0.06468138  0.76903951  0.57259486  1
  Li  Li118  1  0.19475006  0.69856034  0.59648009  1
  Li  Li119  1  0.04699311  0.76527673  0.62677267  1
  Li  Li120  1  0.19981898  0.75176885  0.71005362  1
  Li  Li121  1  0.01843290  0.79017915  0.77435962  1
  Li  Li122  1  0.19373889  0.70136519  0.78805889  1
  Li  Li123  1  0.08723081  0.67485403  0.84964809  1
  Li  Li124  1  0.03924103  0.74438213  0.47882030  1
  Li  Li125  1  -0.06707632  0.70741114  0.51335286  1
  Li  Li126  1  0.18112715  0.91115778  0.52534978  1
  Li  Li127  1  0.16556778  0.87137106  0.60146096  1
  Li  Li128  1  0.05353415  0.94123534  0.64234941  1
  Li  Li129  1  0.13979222  0.85652314  0.67571325  1
  Li  Li130  1  0.07372055  0.99930544  0.76917506  1
  Li  Li131  1  0.20019342  0.80292800  0.82383772  1
  Li  Li132  1  0.11680718  0.90005602  0.85665613  1
  Li  Li133  1  0.00036979  0.88936788  0.44518777  1
  Li  Li134  1  0.32299163  0.99110923  0.50139204  1
  Li  Li135  1  0.17233610  0.08975732  0.53913500  1
  Li  Li136  1  0.32401960  -0.02631606  0.61842565  1
  Li  Li137  1  0.22863874  0.01197312  0.64904889  1
  Li  Li138  1  0.36141602  0.09703266  0.68835749  1
  Li  Li139  1  0.24675675  0.09491330  0.77958610  1
  Li  Li140  1  0.38653944  0.01554720  0.80454810  1
  Li  Li141  1  0.20549672  0.11942049  0.85278844  1
  Li  Li142  1  0.16323517  0.93234402  0.47332530  1
  Li  Li143  1  0.25058271  0.17383639  0.50836085  1
  Li  Li144  1  0.24131124  0.26147522  0.54974234  1
  Li  Li145  1  0.24583889  0.16171489  0.62276278  1
  Li  Li146  1  0.24286561  0.21749858  0.66829070  1
  Li  Li147  1  0.40656995  0.07819136  0.73083580  1
  Li  Li148  1  0.27638387  0.20190646  0.74749861  1
  Li  Li149  1  0.29523505  0.19848148  0.81550733  1
  Li  Li150  1  0.16238627  0.33138968  0.85944434  1
  Li  Li151  1  0.24895755  0.27665884  0.45334136  1
  Li  Li152  1  0.12822433  0.31179971  0.51852591  1
  Li  Li153  1  0.24060030  0.44651636  0.55420203  1
  Li  Li154  1  0.28279012  0.27856603  0.59234642  1
  Li  Li155  1  0.29838024  0.40537434  0.67611094  1
  Li  Li156  1  0.34904505  0.26864871  0.70943469  1
  Li  Li157  1  0.27421283  0.39595895  0.74824410  1
  Li  Li158  1  0.40833482  0.36706900  0.78157746  1
  Li  Li159  1  0.27010892  0.40626095  0.82029304  1
  Li  Li160  1  0.17137560  0.40263329  0.48520289  1
  Li  Li161  1  0.19812097  0.50714854  0.52187989  1
  Li  Li162  1  0.25550218  0.64334639  0.55286607  1
  Li  Li163  1  0.38921120  0.47408725  0.63523461  1
  Li  Li164  1  0.19888598  0.48939123  0.64991381  1
  Li  Li165  1  0.35035583  0.46744557  0.71585166  1
  Li  Li166  1  0.23306930  0.59555281  0.75355897  1
  Li  Li167  1  0.34567662  0.54914122  0.78700978  1
  Li  Li168  1  0.29305002  0.62444876  0.82353857  1
  Li  Li169  1  0.02299093  0.53716384  0.47025595  1
  Li  Li170  1  0.14596937  0.71403859  0.52062529  1
  Li  Li171  1  0.25012342  0.82788455  0.56054748  1
  Li  Li172  1  0.36447058  0.62115640  0.58735780  1
  Li  Li173  1  0.28495109  0.65163796  0.62673419  1
  Li  Li174  1  0.25145665  0.58853947  0.68932697  1
  Li  Li175  1  0.17346436  0.79658248  0.74765999  1
  Li  Li176  1  0.37891441  0.73283377  0.76449030  1
  Li  Li177  1  0.30419424  0.73652543  0.86097226  1
  Li  Li178  1  0.19348152  0.60895738  0.48694514  1
  Li  Li179  1  0.24861869  0.80117987  0.49342173  1
  Li  Li180  1  0.29606832  0.99208026  0.58131142  1
  Li  Li181  1  0.37202423  0.81513725  0.59722028  1
  Li  Li182  1  0.22643796  0.82654915  0.63798596  1
  Li  Li183  1  0.28042777  0.93342244  0.70315265  1
  Li  Li184  1  0.23054533  0.89145425  0.78296133  1
  Li  Li185  1  0.39186343  0.81424967  0.80362760  1
  Li  Li186  1  0.33729491  0.92358989  0.84298999  1
  Li  Li187  1  0.22551120  0.73338155  0.45391717  1
  Li  Li188  1  0.35138286  0.00271480  0.54060369  1
  Li  Li189  1  0.37020697  0.14499679  0.56728918  1
  Li  Li190  1  0.52186997  -0.01219106  0.58874454  1
  Li  Li191  1  0.39646513  0.09997945  0.64970349  1
  Li  Li192  1  0.50147783  -0.03013253  0.70272907  1
  Li  Li193  1  0.39973455  -0.03595420  0.76561352  1
  Li  Li194  1  0.57834581  -0.00712979  0.78470647  1
  Li  Li195  1  0.42099878  0.11355397  0.84254930  1
  Li  Li196  1  0.49708785  0.11683307  0.44886207  1
  Li  Li197  1  0.28327255  0.10174218  0.47276203  1
  Li  Li198  1  0.41728670  0.17289521  0.52637067  1
  Li  Li199  1  0.42025773  0.13264228  0.60600917  1
  Li  Li200  1  0.35761381  0.29746784  0.63976370  1
  Li  Li201  1  0.53073431  0.17482233  0.70623459  1
  Li  Li202  1  0.43268122  0.16801859  0.77748537  1
  Li  Li203  1  0.55620850  0.12428602  0.81068662  1
  Li  Li204  1  0.37115437  0.32400150  0.85265322  1
  Li  Li205  1  0.45012327  0.42234111  0.46597616  1
  Li  Li206  1  0.35128610  0.28824598  0.48687860  1
  Li  Li207  1  0.44530466  0.31710270  0.55230801  1
  Li  Li208  1  0.45627493  0.31774573  0.60644093  1
  Li  Li209  1  0.48019511  0.44677326  0.67027149  1
  Li  Li210  1  0.45192426  0.25959249  0.67330989  1
  Li  Li211  1  0.46644971  0.29677848  0.74242713  1
  Li  Li212  1  0.48169410  0.29656480  0.81772310  1
  Li  Li213  1  0.46024787  0.49166793  0.82138932  1
  Li  Li214  1  0.34350704  0.48191368  0.49458940  1
  Li  Li215  1  0.32111554  0.35776568  0.52161089  1
  Li  Li216  1  0.38184742  0.44183259  0.57816996  1
  Li  Li217  1  0.50164666  0.49804476  0.60814258  1
  Li  Li218  1  0.37834495  0.60938939  0.65768414  1
  Li  Li219  1  0.53164788  0.38438758  0.70597214  1
  Li  Li220  1  0.44431630  0.52879992  0.75195928  1
  Li  Li221  1  0.58458705  0.48239235  0.78422828  1
  Li  Li222  1  0.46346079  0.55550979  0.85967360  1
  Li  Li223  1  0.50949472  0.59197044  0.44707027  1
  Li  Li224  1  0.33758365  0.64030040  0.51548577  1
  Li  Li225  1  0.45826612  0.69391246  0.55513694  1
  Li  Li226  1  0.48212211  0.67465100  0.61938917  1
  Li  Li227  1  0.31134106  0.75999674  0.67244140  1
  Li  Li228  1  0.45697645  0.59118885  0.69215282  1
  Li  Li229  1  0.36316728  0.66185158  0.72489035  1
  Li  Li230  1  0.51117860  0.65460036  0.79832403  1
  Li  Li231  1  0.48717752  0.74798409  0.83819230  1
  Li  Li232  1  0.39794626  0.65670998  0.47803354  1
  Li  Li233  1  0.36728322  0.81718254  0.52734605  1
  Li  Li234  1  0.45933848  0.87963647  0.56155771  1
  Li  Li235  1  0.42243093  0.82460347  0.63725741  1
  Li  Li236  1  0.37386089  0.93226090  0.66801046  1
  Li  Li237  1  0.45068409  0.78702269  0.69630149  1
  Li  Li238  1  0.37663450  0.86046238  0.73309473  1
  Li  Li239  1  0.55998736  0.80862004  0.77076859  1
  Li  Li240  1  0.51000420  0.92273746  0.86778975  1
  Li  Li241  1  0.45128722  0.83642399  0.49241682  1
  Li  Li242  1  0.51951388  -0.00151324  0.51261657  1
  Li  Li243  1  0.55190670  0.06985182  0.55048593  1
  Li  Li244  1  0.52451281  -0.01343152  0.62790821  1
  Li  Li245  1  0.58935555  0.10466546  0.67192302  1
  Li  Li246  1  0.67808035  0.04902005  0.71588782  1
  Li  Li247  1  0.58887455  0.13742954  0.75176795  1
  Li  Li248  1  0.75347573  -0.01329276  0.81530404  1
  Li  Li249  1  0.62922115  0.08815943  0.84638287  1
  Li  Li250  1  0.56014409  0.95863137  0.46923646  1
  Li  Li251  1  0.48183188  0.14708604  0.48854147  1
  Li  Li252  1  0.54719018  0.20634590  0.57808148  1
  Li  Li253  1  0.63322129  0.11760969  0.60696656  1
  Li  Li254  1  0.54098208  0.19131529  0.63648905  1
  Li  Li255  1  0.67535376  0.26012806  0.72139702  1
  Li  Li256  1  0.60089911  0.28553095  0.78447052  1
  Li  Li257  1  0.73101572  0.13203093  0.78629339  1
  Li  Li258  1  0.52743696  0.18743733  0.87505743  1
  Li  Li259  1  0.61040391  0.31294913  0.48365590  1
  Li  Li260  1  0.50962995  0.34616611  0.51452813  1
  Li  Li261  1  0.58387042  0.40201520  0.57737169  1
  Li  Li262  1  0.65213952  0.30175716  0.60962482  1
  Li  Li263  1  0.57450355  0.37204529  0.64145794  1
  Li  Li264  1  0.65221097  0.30468194  0.67718340  1
  Li  Li265  1  0.62082137  0.41811145  0.74738070  1
  Li  Li266  1  0.67896352  0.42965656  0.81791219  1
  Li  Li267  1  0.58025272  0.36562014  0.85080185  1
  Li  Li268  1  0.69946606  0.43397325  0.51242372  1
  Li  Li269  1  0.42519939  0.50878067  0.53901787  1
  Li  Li270  1  0.57189604  0.59855991  0.57995491  1
  Li  Li271  1  0.69248128  0.47851742  0.60878947  1
  Li  Li272  1  0.58040425  0.55641259  0.64393196  1
  Li  Li273  1  0.66935755  0.50090238  0.67968941  1
  Li  Li274  1  0.58111744  0.55873769  0.72125879  1
  Li  Li275  1  0.79094209  0.51816582  0.75659600  1
  Li  Li276  1  0.62768426  0.60157576  0.83219244  1
  Li  Li277  1  0.53138316  0.52551530  0.49881488  1
  Li  Li278  1  0.52491302  0.68226414  0.51808667  1
  Li  Li279  1  0.57693276  0.79011304  0.59258046  1
  Li  Li280  1  0.68349934  0.65687326  0.61555662  1
  Li  Li281  1  0.54455453  0.72233214  0.66033039  1
  Li  Li282  1  0.63456947  0.68003233  0.69159872  1
  Li  Li283  1  0.55608284  0.75479812  0.72952000  1
  Li  Li284  1  0.62295951  0.63898067  0.75911885  1
  Li  Li285  1  0.65310917  0.71067644  0.86814720  1
  Li  Li286  1  0.60329063  0.71902821  0.48084974  1
  Li  Li287  1  0.58021752  0.84831803  0.53084122  1
  Li  Li288  1  0.67123043  0.89150647  0.56390759  1
  Li  Li289  1  0.65058160  0.82992695  0.63059543  1
  Li  Li290  1  0.57301838  0.91518872  0.66496180  1
  Li  Li291  1  0.66919442  0.85642861  0.70094396  1
  Li  Li292  1  0.57345850  0.94617758  0.74230483  1
  Li  Li293  1  0.64347803  0.80571304  0.80714172  1
  Li  Li294  1  0.53515484  0.93892034  0.82642600  1
  Li  Li295  1  0.37897606  0.93343613  0.45048168  1
  Li  Li296  1  0.72172736  1.00821969  0.53176219  1
  Li  Li297  1  0.72763391  0.06797601  0.57306091  1
  Li  Li298  1  0.75183127  -0.04175051  0.60524940  1
  Li  Li299  1  0.70941158  0.04562351  0.64089191  1
  Li  Li300  1  0.87697184  0.01997697  0.71246545  1
  Li  Li301  1  0.79064303  0.06383403  0.74902304  1
  Li  Li302  1  0.90149090  0.00262473  0.78754761  1
  Li  Li303  1  0.70349804  0.02908328  0.88207010  1
  Li  Li304  1  0.70162745  0.08692823  0.48579614  1
  Li  Li305  1  0.62229765  0.17019433  0.51793550  1
  Li  Li306  1  0.73948990  0.25427983  0.57626183  1
  Li  Li307  1  0.81612324  0.17869763  0.60766994  1
  Li  Li308  1  0.73624990  0.23346634  0.64338435  1
  Li  Li309  1  0.77551480  0.16693086  0.69143133  1
  Li  Li310  1  0.74336679  0.27507925  0.75631735  1
  Li  Li311  1  0.88938418  0.17643312  0.81304010  1
  Li  Li312  1  0.70504391  0.23530970  0.82484726  1
  Li  Li313  1  0.72815758  0.22244058  0.45656547  1
  Li  Li314  1  0.64922642  0.30320725  0.54359301  1
  Li  Li315  1  0.76619769  0.43316163  0.56653649  1
  Li  Li316  1  0.84811419  0.37238033  0.60562241  1
  Li  Li317  1  0.77573975  0.43108373  0.64433884  1
  Li  Li318  1  0.86149268  0.31249131  0.67398319  1
  Li  Li319  1  0.76131853  0.43537258  0.71364054  1
  Li  Li320  1  0.79839082  0.37034835  0.78940118  1
  Li  Li321  1  0.86907956  0.54622790  0.82555468  1
  Li  Li322  1  0.80343593  0.39035485  0.47438068  1
  Li  Li323  1  0.62329021  0.52120157  0.54293367  1
  Li  Li324  1  0.77282617  0.60041708  0.58215437  1
  Li  Li325  1  0.87699107  0.55654382  0.61891693  1
  Li  Li326  1  0.75418762  0.62687895  0.65231655  1
  Li  Li327  1  0.87939685  0.49418689  0.67885388  1
  Li  Li328  1  0.75952273  0.66497690  0.72523678  1
  Li  Li329  1  0.93264417  0.54693448  0.78706117  1
  Li  Li330  1  0.74871859  0.48998634  0.85855987  1
  Li  Li331  1  0.68074271  0.54125442  0.47458476  1
  Li  Li332  1  0.72010593  0.66886956  0.51277706  1
  Li  Li333  1  0.78496789  0.78472960  0.59016795  1
  Li  Li334  1  0.84929690  0.75373113  0.62649586  1
  Li  Li335  1  0.74549471  0.79829361  0.66566173  1
  Li  Li336  1  0.82832063  0.65787246  0.68976087  1
  Li  Li337  1  0.75591691  0.85938118  0.73426578  1
  Li  Li338  1  0.73524398  0.61703866  0.79485826  1
  Li  Li339  1  0.78175510  0.72140139  0.83174690  1
  Li  Li340  1  0.73049456  0.77815102  0.45205477  1
  Li  Li341  1  0.67542172  0.70776203  0.55255626  1
  Li  Li342  1  0.87377262  0.92003591  0.56453928  1
  Li  Li343  1  0.85150799  0.92102779  0.64216799  1
  Li  Li344  1  0.76367236  0.98334319  0.67779140  1
  Li  Li345  1  0.87963674  0.83390494  0.70081411  1
  Li  Li346  1  0.74719548  0.89971293  0.77214382  1
  Li  Li347  1  0.85615977  0.79453537  0.79892945  1
  Li  Li348  1  0.70262932  0.88268748  0.84816651  1
  Li  Li349  1  0.67696108  0.87988432  0.49825791  1
  Li  Li350  1  0.86095274  0.03596159  0.50469758  1
  Li  Li351  1  0.93888422  0.09455050  0.58027895  1
  Li  Li352  1  -0.06901627  0.06569909  0.62294138  1
  Li  Li353  1  0.88754182  0.12266548  0.65956876  1
  Li  Li354  1  0.15454473  0.05310130  0.68067900  1
  Li  Li355  1  1.02262312  0.09449531  0.73650867  1
  Li  Li356  1  0.01580488  0.04739954  0.83276958  1
  Li  Li357  1  0.83500922  0.06046455  0.84918354  1
  Li  Li358  1  0.95111906  0.03182109  0.46864040  1
  Li  Li359  1  0.77898496  0.25554999  0.50503390  1
  Li  Li360  1  0.82128167  0.16698436  0.54374485  1
  Li  Li361  1  0.04229678  0.22547723  0.60526752  1
  Li  Li362  1  0.93276036  0.27617185  0.63551502  1
  Li  Li363  1  0.00468142  0.17070461  0.69539859  1
  Li  Li364  1  0.86968557  0.21940657  0.72545254  1
  Li  Li365  1  -0.08523395  0.19029785  0.76997511  1
  Li  Li366  1  0.75650524  0.25288875  0.86527374  1
  Li  Li367  1  0.90243887  0.21201934  0.47791339  1
  Li  Li368  1  0.86155980  0.35788995  0.53443618  1
  Li  Li369  1  0.92572733  0.30004824  0.57449472  1
  Li  Li370  1  0.03459628  0.42665825  0.60708782  1
  Li  Li371  1  0.99068614  0.44572681  0.64559739  1
  Li  Li372  1  -0.03600284  0.37347958  0.70602453  1
  Li  Li373  1  0.91458225  0.37561401  0.74856068  1
  Li  Li374  1  0.00319946  0.34657533  0.79391990  1
  Li  Li375  1  0.88292027  0.35057214  0.83269650  1
  Li  Li376  1  0.96891955  0.37096527  0.49767418  1
  Li  Li377  1  0.84872224  0.52501224  0.49878684  1
  Li  Li378  1  0.94542416  0.50389861  0.57508783  1
  Li  Li379  1  0.09039839  0.58393134  0.62250917  1
  Li  Li380  1  0.95242697  0.62173363  0.65275860  1
  Li  Li381  1  0.03333501  0.67830906  0.69271966  1
  Li  Li382  1  0.93021773  0.54938392  0.72233313  1
  Li  Li383  1  0.07491068  0.48253914  0.82736589  1
  Li  Li384  1  0.88538449  0.66585934  0.86244021  1
  Li  Li385  1  0.87359745  0.56323021  0.44817333  1
  Li  Li386  1  0.84283213  0.55667220  0.53802272  1
  Li  Li387  1  0.87656893  0.72043093  0.55762268  1
  Li  Li388  1  -0.03618226  0.67358783  0.59555567  1
  Li  Li389  1  0.95160855  0.79513702  0.66420531  1
  Li  Li390  1  -0.01422707  0.74250009  0.72885162  1
  Li  Li391  1  0.83344535  0.71756976  0.76129645  1
  Li  Li392  1  0.02092054  0.68221271  0.81259658  1
  Li  Li393  1  0.87876059  0.87963403  0.87313817  1
  Li  Li394  1  0.83461405  0.68199979  0.47984245  1
  Li  Li395  1  0.81467042  0.84396949  0.52727613  1
  Li  Li396  1  1.01812671  0.83136015  0.54012783  1
  Li  Li397  1  -0.04212010  0.89643223  0.60088110  1
  Li  Li398  1  0.97033888  0.98055658  0.67777531  1
  Li  Li399  1  0.07342460  0.92739731  0.71311289  1
  Li  Li400  1  0.93939848  0.91141506  0.74694608  1
  Li  Li401  1  0.05054617  0.89959926  0.80544838  1
  Li  Li402  1  0.93341404  0.85167967  0.83562844  1
  Li  Li403  1  0.84606878  0.87116128  0.48141191  1
  La  La404  1  0.26666106  0.02716436  0.21644014  1
  La  La405  1  0.77210537  0.44043130  0.21478027  1
  La  La406  1  0.89305925  0.73437964  0.23548811  1
  La  La407  1  0.38310791  0.74786036  0.23421809  1
  La  La408  1  0.62716041  0.24590812  0.23845866  1
  La  La409  1  0.13268480  0.23772238  0.23840750  1
  La  La410  1  0.76172005  0.99621842  0.25483916  1
  La  La411  1  0.27117551  0.49110790  0.25660608  1
  La  La412  1  0.51027633  0.11506024  0.28045575  1
  La  La413  1  0.00749297  0.37893688  0.28066055  1
  La  La414  1  0.51505839  0.61637051  0.27647875  1
  La  La415  1  0.00282634  0.87991289  0.27631365  1
  La  La416  1  0.75631665  0.49327286  0.30164576  1
  La  La417  1  0.25785137  1.00320594  0.29963338  1
  La  La418  1  0.37893744  0.24138243  0.32469810  1
  La  La419  1  0.88002594  0.25384051  0.32452504  1
  La  La420  1  0.13059176  0.74158574  0.32145908  1
  La  La421  1  0.62615741  0.75479754  0.32273412  1
  La  La422  1  0.26355818  0.51271904  0.34624151  1
  La  La423  1  0.76661094  0.98577321  0.34533819  1
  La  La424  1  -0.00096108  0.62336888  0.36899777  1
  La  La425  1  0.49266972  0.87929075  0.36918201  1
  La  La426  1  0.00782319  0.11824274  0.36577272  1
  La  La427  1  0.50375145  0.37449934  0.36706797  1
  La  La428  1  0.24701923  0.00538308  0.38937738  1
  La  La429  1  0.74757124  0.50630748  0.38948687  1
  La  La430  1  0.86684031  0.74771271  0.41327628  1
  La  La431  1  0.36883710  0.74364323  0.41409889  1
  La  La432  1  0.63128809  0.23071539  0.41071269  1
  La  La433  1  0.12944548  0.25765509  0.41108603  1
  La  La434  1  0.75625666  0.00926416  0.43514548  1
  La  La435  1  0.25092642  0.49341401  0.43547854  1
  Zr  Zr436  1  1.00243513  0.01302640  0.23122616  1
  Zr  Zr437  1  0.50878414  0.00784960  0.23554195  1
  Zr  Zr438  1  0.51810245  0.49360593  0.23230386  1
  Zr  Zr439  1  0.00773424  0.48431870  0.23608028  1
  Zr  Zr440  1  0.74884375  0.24453833  0.28335003  1
  Zr  Zr441  1  0.75487462  0.75751440  0.27959438  1
  Zr  Zr442  1  0.25151517  0.25396051  0.28342556  1
  Zr  Zr443  1  0.25701878  0.73425772  0.27853670  1
  Zr  Zr444  1  0.51036238  0.51149668  0.32443889  1
  Zr  Zr445  1  -0.00602200  0.50456626  0.32625961  1
  Zr  Zr446  1  0.01323489  0.98378515  0.32301009  1
  Zr  Zr447  1  0.49216041  0.99352990  0.32590915  1
  Zr  Zr448  1  0.24127898  0.74900665  0.37204916  1
  Zr  Zr449  1  0.25218396  0.26006398  0.36821744  1
  Zr  Zr450  1  0.74069449  0.75557525  0.37141230  1
  Zr  Zr451  1  0.75463824  0.23247600  0.36761716  1
  Zr  Zr452  1  0.00659312  0.01939975  0.41422571  1
  Zr  Zr453  1  0.48008679  0.00387813  0.41633256  1
  Zr  Zr454  1  0.50971749  0.47857447  0.41358601  1
  Zr  Zr455  1  -0.02084322  0.49246481  0.41592875  1
  O  O456  1  0.45184955  0.06468722  0.21065069  1
  O  O457  1  0.09436046  0.97779968  0.21023264  1
  O  O458  1  0.62330675  0.53007684  0.21194485  1
  O  O459  1  0.95570531  0.41845363  0.21156641  1
  O  O460  1  0.24327579  0.83022166  0.22534919  1
  O  O461  1  0.28098475  0.19203424  0.22408101  1
  O  O462  1  0.75703609  0.74647621  0.21686247  1
  O  O463  1  0.78027044  0.27376146  0.21919442  1
  O  O464  1  0.52376448  0.85770424  0.23341731  1
  O  O465  1  0.97951264  0.16500445  0.22677268  1
  O  O466  1  0.04299809  0.63478817  0.23209905  1
  O  O467  1  0.46776356  0.34962993  0.22491880  1
  O  O468  1  0.85137532  0.97789020  0.22598303  1
  O  O469  1  0.64902062  0.07827754  0.22679874  1
  O  O470  1  0.15778859  0.44276531  0.22662664  1
  O  O471  1  0.36941362  0.54434341  0.22888919  1
  O  O472  1  0.35954305  0.98415563  0.24301039  1
  O  O473  1  0.14744876  0.06105434  0.24343311  1
  O  O474  1  0.66838186  0.42228002  0.24304862  1
  O  O475  1  0.85421741  0.53800055  0.24074164  1
  O  O476  1  0.47746044  0.15852782  0.24880992  1
  O  O477  1  0.03008474  0.85775315  0.24374251  1
  O  O478  1  0.96268009  0.35265963  0.24911920  1
  O  O479  1  0.55819593  0.63267302  0.24501808  1
  O  O480  1  0.78440545  0.18686462  0.25708907  1
  O  O481  1  0.72640498  0.81949139  0.25384512  1
  O  O482  1  0.29311182  0.31492157  0.25762625  1
  O  O483  1  0.22710011  0.66938954  0.25200675  1
  O  O484  1  0.95485734  0.02646147  0.26101715  1
  O  O485  1  0.58108790  0.99068424  0.26238512  1
  O  O486  1  0.08117549  0.50138431  0.26265581  1
  O  O487  1  0.47383609  0.46665725  0.26104855  1
  O  O488  1  0.10465093  0.21838729  0.27308568  1
  O  O489  1  0.40304279  0.77615971  0.26784525  1
  O  O490  1  0.60167390  0.28031352  0.27412938  1
  O  O491  1  0.90415749  0.71612405  0.26972492  1
  O  O492  1  0.31895397  0.11516972  0.27809973  1
  O  O493  1  0.21452528  0.88150617  0.27381174  1
  O  O494  1  0.81339185  0.38755563  0.27877416  1
  O  O495  1  0.71892315  0.60715948  0.27515200  1
  O  O496  1  0.19800687  0.39499948  0.29034499  1
  O  O497  1  0.31798453  0.58468127  0.28361286  1
  O  O498  1  0.69723001  0.10325657  0.29033029  1
  O  O499  1  0.81274308  0.90733991  0.28409402  1
  O  O500  1  0.40015211  0.30059160  0.29387786  1
  O  O501  1  0.11115964  0.69551622  0.28800151  1
  O  O502  1  0.90005429  0.20005165  0.29299211  1
  O  O503  1  0.60502389  0.78932057  0.28855860  1
  O  O504  1  0.94430095  0.52647086  0.29917599  1
  O  O505  1  0.57170461  0.48156728  0.29800535  1
  O  O506  1  0.07266245  0.01688280  0.29616592  1
  O  O507  1  0.44395557  0.96897686  0.29874463  1
  O  O508  1  0.72812013  0.31217650  0.30985527  1
  O  O509  1  0.78174765  0.73261685  0.30820748  1
  O  O510  1  0.22712289  0.18519360  0.30945032  1
  O  O511  1  0.28652092  0.76112440  0.30658751  1
  O  O512  1  0.03289524  0.35291190  0.32096526  1
  O  O513  1  0.48204192  0.65661901  0.31622730  1
  O  O514  1  0.53186646  0.14505628  0.32079663  1
  O  O515  1  0.98465688  0.83891936  0.31369691  1
  O  O516  1  0.35858784  0.48119511  0.32034996  1
  O  O517  1  0.14500427  0.54686899  0.32133156  1
  O  O518  1  0.64288771  0.94735109  0.32123088  1
  O  O519  1  0.86074186  0.01307140  0.31935290  1
  O  O520  1  0.84586155  0.45541163  0.33226470  1
  O  O521  1  0.65573820  0.56190180  0.33320312  1
  O  O522  1  0.15926744  0.93036354  0.33102725  1
  O  O523  1  0.34324513  0.04494956  0.33087219  1
  O  O524  1  0.97135678  0.64607799  0.33689982  1
  O  O525  1  0.54227104  0.36440558  0.33488397  1
  O  O526  1  0.45957431  0.85540325  0.33716784  1
  O  O527  1  0.04072022  0.13176475  0.33283085  1
  O  O528  1  0.28817912  0.69293463  0.34644571  1
  O  O529  1  0.22238226  0.32065425  0.34151202  1
  O  O530  1  0.79534112  0.80884610  0.34645333  1
  O  O531  1  0.72368616  0.17247660  0.34072334  1
  O  O532  1  0.45753456  0.53147441  0.35308744  1
  O  O533  1  0.04487611  0.47437770  0.35572165  1
  O  O534  1  0.53878246  0.02358883  0.35495649  1
  O  O535  1  0.96933721  0.96496537  0.35173277  1
  O  O536  1  0.59278786  0.72027065  0.36364611  1
  O  O537  1  0.90418319  0.27464355  0.35894674  1
  O  O538  1  0.09163922  0.78123370  0.36598458  1
  O  O539  1  0.40046699  0.21891457  0.35967745  1
  O  O540  1  0.81388198  0.61438463  0.36724287  1
  O  O541  1  0.71415454  0.38321771  0.36500178  1
  O  O542  1  0.30263919  0.89070127  0.36667312  1
  O  O543  1  0.20644450  0.11173233  0.36270801  1
  O  O544  1  0.68919826  0.89717902  0.37849111  1
  O  O545  1  0.80931863  0.08546241  0.37314142  1
  O  O546  1  0.19507992  0.60285853  0.37875320  1
  O  O547  1  0.30486422  0.40369831  0.37533748  1
  O  O548  1  0.88825304  0.80487924  0.38348266  1
  O  O549  1  0.60694533  0.19998793  0.37657103  1
  O  O550  1  0.39339814  0.70040869  0.38320764  1
  O  O551  1  0.10846842  0.29707870  0.37821058  1
  O  O552  1  0.42640868  0.03173313  0.38971789  1
  O  O553  1  0.06762052  0.99316674  0.38743606  1
  O  O554  1  0.56792961  0.51200416  0.38687273  1
  O  O555  1  0.91854076  0.44801022  0.39034911  1
  O  O556  1  0.23185795  0.81414257  0.39948007  1
  O  O557  1  0.26905314  0.20024957  0.39570482  1
  O  O558  1  0.72244701  0.68670503  0.39819294  1
  O  O559  1  0.77880116  0.25524459  0.39591350  1
  O  O560  1  0.51587391  0.85027623  0.40996341  1
  O  O561  1  0.97571379  0.16582600  0.40574410  1
  O  O562  1  0.01321965  0.64308028  0.40827191  1
  O  O563  1  0.47182410  0.33438632  0.40382945  1
  O  O564  1  0.85496295  0.99112338  0.40943314  1
  O  O565  1  0.62941920  0.04210979  0.40938036  1
  O  O566  1  0.12849180  0.45873029  0.40965414  1
  O  O567  1  0.35952337  0.52064571  0.41034062  1
  O  O568  1  0.33630828  0.95573992  0.42456253  1
  O  O569  1  0.15134547  0.07283450  0.42239790  1
  O  O570  1  0.65812059  0.42144300  0.42038121  1
  O  O571  1  0.83292036  0.55097036  0.42286600  1
  O  O572  1  0.44700260  0.14855016  0.42473322  1
  O  O573  1  0.03780522  0.86881890  0.41931431  1
  O  O574  1  0.93779256  0.35220790  0.42530706  1
  O  O575  1  0.54713722  0.62137359  0.42219476  1
  O  O576  1  0.75159739  0.17674019  0.43345045  1
  O  O577  1  0.71495842  0.83375549  0.42870061  1
  O  O578  1  0.26550386  0.32828306  0.43018758  1
  O  O579  1  0.20929889  0.66267727  0.42842992  1
  O  O580  1  0.96115198  0.02958453  0.44262886  1
  O  O581  1  0.53465849  0.97951828  0.44417849  1
  O  O582  1  0.02373268  0.51971373  0.44387154  1
  O  O583  1  0.47037505  0.43851782  0.44099110  1
