# generated using pymatgen
data_Li37La3Zr2O12
_symmetry_space_group_name_H-M   'P 1'
_cell_length_a   13.36304565
_cell_length_b   13.76673248
_cell_length_c   78.56898845
_cell_angle_alpha   89.97012752
_cell_angle_beta   90.11415389
_cell_angle_gamma   90.10209128
_symmetry_Int_Tables_number   1
_chemical_formula_structural   Li37La3Zr2O12
_chemical_formula_sum   'Li444 La36 Zr24 O144'
_cell_volume   14453.92768423
_cell_formula_units_Z   12
loop_
 _symmetry_equiv_pos_site_id
 _symmetry_equiv_pos_as_xyz
  1  'x, y, z'
loop_
 _atom_site_type_symbol
 _atom_site_label
 _atom_site_symmetry_multiplicity
 _atom_site_fract_x
 _atom_site_fract_y
 _atom_site_fract_z
 _atom_site_occupancy
  Li  Li0  1  0.90120787  0.92547153  0.19913605  1
  Li  Li1  1  0.57850725  0.09957979  0.19833027  1
  Li  Li2  1  0.17758234  0.38193545  0.19736491  1
  Li  Li3  1  0.26313593  0.59817138  0.18974856  1
  Li  Li4  1  0.48868504  0.62741273  0.19222683  1
  Li  Li5  1  0.95058478  0.36355730  0.20788462  1
  Li  Li6  1  0.08711521  0.85765878  0.20287064  1
  Li  Li7  1  0.41964318  0.18094871  0.21377953  1
  Li  Li8  1  0.70860903  0.92701213  0.20923324  1
  Li  Li9  1  0.79557309  0.08814818  0.21195788  1
  Li  Li10  1  0.01183095  0.62644096  0.20000553  1
  Li  Li11  1  0.26502646  0.50970170  0.21245205  1
  Li  Li12  1  0.87489060  0.25977248  0.23038816  1
  Li  Li13  1  0.61457295  0.73997130  0.21845037  1
  Li  Li14  1  0.32349131  0.32738628  0.22417043  1
  Li  Li15  1  0.14545078  0.69783285  0.22151202  1
  Li  Li16  1  0.34571296  0.17184338  0.24065500  1
  Li  Li17  1  0.16700715  0.85047432  0.23791082  1
  Li  Li18  1  0.75303616  0.49333825  0.24984447  1
  Li  Li19  1  0.69034557  0.65168193  0.24283718  1
  Li  Li20  1  0.44440090  0.33639552  0.25788037  1
  Li  Li21  1  0.09246249  0.66393928  0.25200868  1
  Li  Li22  1  0.99770269  0.13486850  0.26501230  1
  Li  Li23  1  0.58749313  0.83592127  0.24440930  1
  Li  Li24  1  0.36193728  0.91200584  0.25386336  1
  Li  Li25  1  0.23400266  0.02865177  0.24902736  1
  Li  Li26  1  0.59286820  0.43275361  0.26134450  1
  Li  Li27  1  0.92377874  0.60008315  0.24967381  1
  Li  Li28  1  0.36683906  0.42582457  0.28462650  1
  Li  Li29  1  0.16871589  0.57599783  0.28138551  1
  Li  Li30  1  0.68124347  0.95917479  0.28136234  1
  Li  Li31  1  0.84767072  0.07530544  0.28159835  1
  Li  Li32  1  0.08960282  0.17416203  0.28835956  1
  Li  Li33  1  0.50536693  0.87874912  0.27154273  1
  Li  Li34  1  0.56765223  0.32583573  0.28545396  1
  Li  Li35  1  0.97571407  0.65668760  0.27956214  1
  Li  Li36  1  0.16981626  0.41087722  0.29681440  1
  Li  Li37  1  0.34469232  0.60097741  0.29778241  1
  Li  Li38  1  0.67664929  0.13874711  0.29626862  1
  Li  Li39  1  0.83874400  0.90296680  0.29891423  1
  Li  Li40  1  0.38494364  0.77312665  0.30565379  1
  Li  Li41  1  0.13655285  0.25735398  0.31267649  1
  Li  Li42  1  0.88303557  0.74508324  0.30978305  1
  Li  Li43  1  0.62895074  0.26039469  0.31316871  1
  Li  Li44  1  0.81743524  0.58170255  0.32396462  1
  Li  Li45  1  0.72423137  0.42145752  0.32660323  1
  Li  Li46  1  0.30864086  0.92406104  0.32222004  1
  Li  Li47  1  0.21558327  0.08665424  0.32209900  1
  Li  Li48  1  0.93434493  0.84958816  0.33522170  1
  Li  Li49  1  0.57587182  0.16154368  0.33903932  1
  Li  Li50  1  0.43528918  0.66196247  0.32726936  1
  Li  Li51  1  0.09204090  0.34470571  0.33945941  1
  Li  Li52  1  0.92572919  0.41515881  0.34141685  1
  Li  Li53  1  0.64075340  0.60016928  0.33673853  1
  Li  Li54  1  0.11567993  0.92028676  0.33720421  1
  Li  Li55  1  0.40457878  0.08261523  0.33832492  1
  Li  Li56  1  0.84940461  0.95100763  0.36279922  1
  Li  Li57  1  0.67970610  0.04991735  0.36635136  1
  Li  Li58  1  0.17863023  0.43629122  0.36425683  1
  Li  Li59  1  0.34500998  0.56846847  0.36593860  1
  Li  Li60  1  0.51431002  0.63952088  0.35452221  1
  Li  Li61  1  0.92986677  0.32329416  0.36995004  1
  Li  Li62  1  0.04759180  0.85348672  0.36413127  1
  Li  Li63  1  0.47689533  0.14697142  0.36587803  1
  Li  Li64  1  0.67214691  0.87522315  0.37936619  1
  Li  Li65  1  0.85705415  0.11737046  0.37745272  1
  Li  Li66  1  0.16455262  0.60911182  0.37944493  1
  Li  Li67  1  0.35282314  0.40906433  0.38287205  1
  Li  Li68  1  0.89432340  0.23718560  0.39683750  1
  Li  Li69  1  0.60304793  0.69588573  0.38177736  1
  Li  Li70  1  0.38539752  0.24748752  0.39150642  1
  Li  Li71  1  0.13001950  0.76091612  0.38913326  1
  Li  Li72  1  0.31354194  0.08172372  0.40312379  1
  Li  Li73  1  0.01999456  0.85680989  0.41657510  1
  Li  Li74  1  0.81265615  0.41972942  0.40423246  1
  Li  Li75  1  0.72532010  0.58879773  0.40616556  1
  Li  Li76  1  0.42999383  0.37286541  0.41218800  1
  Li  Li77  1  0.06561607  0.65910667  0.41407057  1
  Li  Li78  1  0.98146228  0.13564787  0.42252565  1
  Li  Li79  1  0.61288136  0.78213153  0.40826433  1
  Li  Li80  1  0.21301683  0.93060929  0.41112065  1
  Li  Li81  1  0.17696284  0.11190867  0.42247987  1
  Li  Li82  1  0.63591287  0.39867487  0.42067012  1
  Li  Li83  1  0.90192916  0.58990043  0.41957360  1
  Li  Li84  1  0.96203283  0.90251331  0.53586497  1
  Li  Li85  1  0.11307313  0.05215528  0.54398835  1
  Li  Li86  1  0.12695649  0.05440506  0.58237725  1
  Li  Li87  1  0.09273060  0.14976896  0.68567636  1
  Li  Li88  1  0.24510817  0.02594536  0.72439858  1
  Li  Li89  1  0.09132370  0.16502282  0.74519666  1
  Li  Li90  1  0.16942930  0.03999130  0.79131076  1
  Li  Li91  1  0.20600220  0.14297632  0.82628051  1
  Li  Li92  1  0.05062740  0.04167323  0.84966014  1
  Li  Li93  1  1.05230890  -0.03281373  0.43809390  1
  Li  Li94  1  -0.01133351  0.03821331  0.50953555  1
  Li  Li95  1  0.05550351  0.21935260  0.52846549  1
  Li  Li96  1  0.06721883  0.19652851  0.60910330  1
  Li  Li97  1  0.02224432  0.24441885  0.65047138  1
  Li  Li98  1  0.18226766  0.24795095  0.71581565  1
  Li  Li99  1  -0.03841058  0.25498767  0.77376175  1
  Li  Li100  1  0.16630609  0.24127134  0.78065407  1
  Li  Li101  1  0.02348531  0.25562726  0.84312007  1
  Li  Li102  1  0.23122317  0.28784133  0.89993173  1
  Li  Li103  1  0.11391146  0.21933822  0.45307475  1
  Li  Li104  1  0.05447191  0.21161330  0.49176659  1
  Li  Li105  1  0.06278957  0.38116013  0.54909941  1
  Li  Li106  1  0.17023182  0.35564307  0.58429083  1
  Li  Li107  1  0.12769888  0.37682274  0.62150030  1
  Li  Li108  1  0.17692663  0.32448316  0.67839972  1
  Li  Li109  1  0.08624887  0.36604913  0.74554339  1
  Li  Li110  1  0.19182779  0.36769520  0.83906462  1
  Li  Li111  1  -0.01091938  0.46896704  0.83872671  1
  Li  Li112  1  0.11899026  0.39852358  0.87097552  1
  Li  Li113  1  0.24762799  0.40255231  0.45550349  1
  Li  Li114  1  0.95137426  0.38925123  0.50885400  1
  Li  Li115  1  0.16233790  0.53702088  0.52999899  1
  Li  Li116  1  0.07218550  0.56280508  0.60292163  1
  Li  Li117  1  0.02275046  0.64976758  0.64313574  1
  Li  Li118  1  0.19559189  0.52078064  0.68541966  1
  Li  Li119  1  0.09661016  0.56222342  0.74568377  1
  Li  Li120  1  0.17992190  0.45982788  0.77689256  1
  Li  Li121  1  0.10383873  0.55461627  0.81206672  1
  Li  Li122  1  0.15265023  0.51929379  0.89863507  1
  Li  Li123  1  0.08587112  0.56219503  0.45636312  1
  Li  Li124  1  0.05343602  0.55665403  0.49651758  1
  Li  Li125  1  0.14023887  0.71536307  0.54519194  1
  Li  Li126  1  0.08534830  0.74261303  0.58151679  1
  Li  Li127  1  -0.00388515  0.85858018  0.64048522  1
  Li  Li128  1  0.11746588  0.74487206  0.68098347  1
  Li  Li129  1  0.09070996  0.76712173  0.74646120  1
  Li  Li130  1  0.26272966  0.67301487  0.76757678  1
  Li  Li131  1  0.05577929  0.75569693  0.84573440  1
  Li  Li132  1  0.16955266  0.70710229  0.87642266  1
  Li  Li133  1  0.14232972  0.72352020  0.47808819  1
  Li  Li134  1  0.02489864  0.72540233  0.51402755  1
  Li  Li135  1  0.20043306  0.89503395  0.55845314  1
  Li  Li136  1  0.03387454  0.92001803  0.60471131  1
  Li  Li137  1  0.06918769  1.03226591  0.65773240  1
  Li  Li138  1  0.18877508  0.96878558  0.68945079  1
  Li  Li139  1  0.10852347  0.96272796  0.75340625  1
  Li  Li140  1  0.17170275  0.84150375  0.78578747  1
  Li  Li141  1  0.10133087  0.92717936  0.82105402  1
  Li  Li142  1  0.18159574  0.86811479  0.90496351  1
  Li  Li143  1  0.05000212  0.76832053  0.44279738  1
  Li  Li144  1  0.15745820  0.05102937  0.47454724  1
  Li  Li145  1  0.22892253  0.19505625  0.55871601  1
  Li  Li146  1  0.39916449  -0.02565248  0.61115716  1
  Li  Li147  1  0.19107469  0.00346400  0.62527293  1
  Li  Li148  1  0.28110406  0.04090315  0.66078440  1
  Li  Li149  1  0.27300040  0.09355061  0.75890695  1
  Li  Li150  1  0.31133228  -0.04819038  0.81611672  1
  Li  Li151  1  0.17606251  0.19362416  0.86584828  1
  Li  Li152  1  0.31656691  0.08078088  0.89155076  1
  Li  Li153  1  0.21626620  0.87218843  0.45092036  1
  Li  Li154  1  0.19436759  0.08416019  0.50910984  1
  Li  Li155  1  0.27879028  0.38896556  0.54844062  1
  Li  Li156  1  0.26513343  0.15818064  0.60195024  1
  Li  Li157  1  0.20286481  0.20398960  0.64261801  1
  Li  Li158  1  0.30193137  0.15268128  0.69025308  1
  Li  Li159  1  0.27573350  0.29758023  0.75043214  1
  Li  Li160  1  0.34914419  0.16162285  0.79643387  1
  Li  Li161  1  0.37149881  0.25768040  0.83625336  1
  Li  Li162  1  0.36068603  0.30050332  0.87077765  1
  Li  Li163  1  0.26026299  0.26676247  0.42467507  1
  Li  Li164  1  0.16130723  0.37120873  0.51178811  1
  Li  Li165  1  0.23721697  0.54689492  0.56954008  1
  Li  Li166  1  0.33751055  0.31455785  0.61910019  1
  Li  Li167  1  0.27463117  0.41291642  0.64898946  1
  Li  Li168  1  0.37440077  0.34610943  0.69900803  1
  Li  Li169  1  0.24000028  0.45643830  0.72064701  1
  Li  Li170  1  0.27118170  0.36075500  0.80721202  1
  Li  Li171  1  0.16856857  0.57549033  0.84812379  1
  Li  Li172  1  0.40936328  0.43584951  0.90336983  1
  Li  Li173  1  0.08376823  0.38948950  0.47621948  1
  Li  Li174  1  0.24554059  0.52723395  0.48861462  1
  Li  Li175  1  0.35510180  0.60050126  0.54011112  1
  Li  Li176  1  0.31458949  0.47418694  0.60106080  1
  Li  Li177  1  0.20810640  0.56678872  0.62840602  1
  Li  Li178  1  0.44341890  0.51705006  0.71575905  1
  Li  Li179  1  0.10652984  0.63124844  0.71194477  1
  Li  Li180  1  0.33386202  0.50599321  0.75076900  1
  Li  Li181  1  0.30389737  0.57381657  0.80094477  1
  Li  Li182  1  0.32753992  0.50608049  0.87178743  1
  Li  Li183  1  0.29194126  0.59811887  0.45647148  1
  Li  Li184  1  0.23188549  0.69181352  0.50954338  1
  Li  Li185  1  0.31353387  0.73361835  0.56675834  1
  Li  Li186  1  0.27559132  0.66730054  0.59829416  1
  Li  Li187  1  0.14410739  0.76288072  0.62042104  1
  Li  Li188  1  0.25384829  0.64976368  0.65816937  1
  Li  Li189  1  0.17643533  0.83462974  0.71498361  1
  Li  Li190  1  0.27432007  0.67024032  0.73161006  1
  Li  Li191  1  0.22992843  0.73819408  0.82197969  1
  Li  Li192  1  0.33980636  0.67063199  0.89816620  1
  Li  Li193  1  0.26256990  0.89816147  0.49250438  1
  Li  Li194  1  0.14681874  0.88907014  0.52065050  1
  Li  Li195  1  0.33447688  1.03222981  0.57675434  1
  Li  Li196  1  0.24215543  0.87539313  0.59444986  1
  Li  Li197  1  0.19923038  0.85175868  0.65237818  1
  Li  Li198  1  0.33605649  0.84452648  0.68047809  1
  Li  Li199  1  0.29060653  0.86338247  0.75127724  1
  Li  Li200  1  0.36967739  0.77862691  0.79415937  1
  Li  Li201  1  0.22795391  0.88590625  0.85050293  1
  Li  Li202  1  0.34691486  0.86582874  0.87968991  1
  Li  Li203  1  0.24092386  0.75010096  0.42318147  1
  Li  Li204  1  0.32729046  0.01873518  0.53575042  1
  Li  Li205  1  0.45418270  0.14458328  0.55745668  1
  Li  Li206  1  0.55076804  0.01458672  0.58003273  1
  Li  Li207  1  0.39342719  0.13973989  0.63515793  1
  Li  Li208  1  0.48109575  0.06009281  0.66789983  1
  Li  Li209  1  0.41277537  0.00262301  0.70133749  1
  Li  Li210  1  0.38227718  -0.02417728  0.78053114  1
  Li  Li211  1  0.34062797  0.06555805  0.85500147  1
  Li  Li212  1  0.52030199  -0.00619684  0.87951285  1
  Li  Li213  1  0.30508880  0.10289427  0.45020696  1
  Li  Li214  1  0.36999415  0.09840320  0.48957463  1
  Li  Li215  1  0.30214197  0.22999903  0.52395829  1
  Li  Li216  1  0.47944187  0.16571793  0.60217632  1
  Li  Li217  1  0.38587129  0.25982926  0.66426256  1
  Li  Li218  1  0.53510258  0.18532103  0.69555894  1
  Li  Li219  1  0.37889412  0.17650012  0.72455919  1
  Li  Li220  1  0.46458402  0.18283876  0.76390445  1
  Li  Li221  1  0.49029719  0.29290513  0.80763154  1
  Li  Li222  1  0.52207242  0.21600315  0.89697729  1
  Li  Li223  1  0.41690272  0.27703821  0.46158722  1
  Li  Li224  1  0.26174660  0.27066280  0.48556093  1
  Li  Li225  1  0.37532038  0.29327188  0.57959117  1
  Li  Li226  1  0.52093301  0.39875271  0.60231629  1
  Li  Li227  1  0.39681255  0.49949215  0.67242341  1
  Li  Li228  1  0.60040116  0.37070174  0.70934156  1
  Li  Li229  1  0.45949133  0.34467770  0.73702538  1
  Li  Li230  1  0.39209205  0.38466333  0.77809249  1
  Li  Li231  1  0.36283859  0.49163092  0.83535653  1
  Li  Li232  1  0.56187831  0.39246805  0.87568673  1
  Li  Li233  1  0.40976051  0.44322018  0.47981754  1
  Li  Li234  1  0.37218450  0.42933429  0.51541176  1
  Li  Li235  1  0.45169890  0.47274347  0.56885323  1
  Li  Li236  1  0.49963912  0.36920563  0.63919361  1
  Li  Li237  1  0.41782938  0.55480090  0.63339596  1
  Li  Li238  1  0.56770364  0.57213311  0.68946822  1
  Li  Li239  1  0.47713677  0.66746936  0.73718197  1
  Li  Li240  1  0.50355914  0.49827852  0.80789416  1
  Li  Li241  1  0.35156754  0.69404823  0.85552012  1
  Li  Li242  1  0.64721680  0.48309443  0.90991377  1
  Li  Li243  1  0.45273310  0.63017272  0.41618474  1
  Li  Li244  1  0.35046975  0.73457603  0.47931877  1
  Li  Li245  1  0.51144499  0.66748945  0.56528694  1
  Li  Li246  1  0.48313426  0.61114810  0.60034889  1
  Li  Li247  1  0.35085246  0.75692411  0.62712373  1
  Li  Li248  1  0.46023900  0.70580228  0.66351299  1
  Li  Li249  1  0.33928453  0.66346619  0.69687243  1
  Li  Li250  1  0.46260263  0.60202595  0.77645389  1
  Li  Li251  1  0.46493091  0.69876209  0.82277505  1
  Li  Li252  1  0.53671007  0.60158304  0.88485576  1
  Li  Li253  1  0.41852989  0.74661337  0.44293488  1
  Li  Li254  1  0.34113466  0.80930620  0.52940301  1
  Li  Li255  1  0.43400585  0.88631896  0.55944888  1
  Li  Li256  1  0.45750473  0.80730583  0.59365413  1
  Li  Li257  1  0.42673318  0.90534868  0.64603729  1
  Li  Li258  1  0.54746453  0.88108889  0.67913966  1
  Li  Li259  1  0.39405524  0.83495928  0.71873561  1
  Li  Li260  1  0.47462049  0.80002598  0.76420805  1
  Li  Li261  1  0.44847522  0.89320478  0.84281086  1
  Li  Li262  1  0.53903863  0.80197525  0.90108376  1
  Li  Li263  1  0.41232016  0.89354541  0.42099560  1
  Li  Li264  1  0.46023720  0.94035020  0.50711423  1
  Li  Li265  1  0.57939333  -0.02104216  0.54070112  1
  Li  Li266  1  0.62528945  -0.10045368  0.60875120  1
  Li  Li267  1  0.56190644  0.05225890  0.62972256  1
  Li  Li268  1  0.75983875  -0.13687388  0.68881435  1
  Li  Li269  1  0.45034300  0.00078929  0.74164099  1
  Li  Li270  1  0.58807977  -0.02629705  0.77066492  1
  Li  Li271  1  0.47678478  0.08485118  0.82486662  1
  Li  Li272  1  0.70494365  -0.04124820  0.90526026  1
  Li  Li273  1  0.53903704  0.11799830  0.46975280  1
  Li  Li274  1  0.48566667  0.13959534  0.52245153  1
  Li  Li275  1  0.59922807  0.25559860  0.57911288  1
  Li  Li276  1  0.70535717  0.09524226  0.59944393  1
  Li  Li277  1  0.60101012  0.20343245  0.65429004  1
  Li  Li278  1  0.61428098  -0.01164145  0.70948889  1
  Li  Li279  1  0.57981067  0.16120036  0.73360561  1
  Li  Li280  1  0.58729971  0.12978882  0.79283420  1
  Li  Li281  1  0.53036459  0.18236158  0.85915832  1
  Li  Li282  1  0.70837570  0.11469409  0.87840604  1
  Li  Li283  1  0.61654558  0.38281538  0.46589986  1
  Li  Li284  1  0.49615214  0.27692914  0.49577161  1
  Li  Li285  1  0.48504817  0.32334920  0.54128138  1
  Li  Li286  1  0.64662029  0.25676476  0.61996481  1
  Li  Li287  1  0.55844651  0.37105588  0.67459867  1
  Li  Li288  1  0.73494195  0.26552301  0.68335079  1
  Li  Li289  1  0.55887246  0.49213980  0.75173055  1
  Li  Li290  1  0.59243089  0.33642726  0.77593285  1
  Li  Li291  1  0.55301729  0.37329739  0.84016598  1
  Li  Li292  1  0.75977373  0.30721998  0.89498332  1
  Li  Li293  1  0.46232396  0.46916271  0.44295191  1
  Li  Li294  1  0.43487152  0.62441461  0.50696030  1
  Li  Li295  1  0.55344422  0.52990960  0.53618380  1
  Li  Li296  1  0.65459308  0.53569172  0.58089454  1
  Li  Li297  1  0.59707154  0.54702803  0.65438245  1
  Li  Li298  1  0.74569131  0.47570097  0.68146661  1
  Li  Li299  1  0.66796615  0.53118015  0.78372117  1
  Li  Li300  1  0.68538456  0.38446118  0.81039823  1
  Li  Li301  1  0.55149727  0.57160172  0.84929908  1
  Li  Li302  1  0.74088356  0.50692530  0.87696738  1
  Li  Li303  1  0.50622060  0.60381605  0.47051688  1
  Li  Li304  1  0.53835500  0.77085146  0.49104398  1
  Li  Li305  1  0.54257165  0.76122951  0.53385486  1
  Li  Li306  1  0.65055261  0.52818679  0.62126781  1
  Li  Li307  1  0.56467298  0.72864408  0.63088588  1
  Li  Li308  1  0.67154517  0.56287748  0.72222783  1
  Li  Li309  1  0.57259706  0.74736513  0.70442684  1
  Li  Li310  1  0.68432699  0.61484959  0.81824008  1
  Li  Li311  1  0.53686063  0.77307692  0.86516792  1
  Li  Li312  1  0.75583558  0.69932809  0.89821061  1
  Li  Li313  1  0.61085332  0.76277470  0.45765814  1
  Li  Li314  1  0.42346321  0.92625810  0.46726638  1
  Li  Li315  1  0.63375303  0.82335044  0.57076593  1
  Li  Li316  1  0.69662704  0.70679991  0.60110074  1
  Li  Li317  1  0.65197042  0.89904882  0.64811729  1
  Li  Li318  1  0.67964692  0.71611018  0.66680397  1
  Li  Li319  1  0.58544875  0.85012932  0.73672553  1
  Li  Li320  1  0.60465222  0.73790420  0.79146906  1
  Li  Li321  1  0.52729874  0.90775808  0.80630200  1
  Li  Li322  1  0.71105824  0.87118391  0.87315578  1
  Li  Li323  1  0.58956657  0.93173541  0.43992087  1
  Li  Li324  1  0.62535491  0.94002265  0.47733060  1
  Li  Li325  1  0.75637541  0.00468384  0.56600953  1
  Li  Li326  1  0.74906805  0.07338285  0.63446195  1
  Li  Li327  1  0.69225553  0.05669376  0.67585249  1
  Li  Li328  1  0.83710455  -0.00053153  0.71059088  1
  Li  Li329  1  0.71522140  0.00387659  0.74163869  1
  Li  Li330  1  0.79337699  0.00736193  0.77828902  1
  Li  Li331  1  0.70818372  -0.00046530  0.81345409  1
  Li  Li332  1  0.87758795  -0.00703598  0.87302744  1
  Li  Li333  1  0.73177121  0.05989125  0.45645837  1
  Li  Li334  1  0.63353487  0.09180819  0.50274332  1
  Li  Li335  1  0.67026517  0.16881307  0.54696727  1
  Li  Li336  1  0.90986819  0.06747042  0.59100303  1
  Li  Li337  1  0.82351783  0.21476237  0.65142760  1
  Li  Li338  1  0.75071611  0.18654401  0.71612138  1
  Li  Li339  1  0.72241618  0.18119323  0.76309005  1
  Li  Li340  1  0.80765169  0.17996448  0.79901750  1
  Li  Li341  1  0.65649766  0.19665038  0.82728504  1
  Li  Li342  1  0.86915918  0.11889631  0.90618495  1
  Li  Li343  1  0.71293139  0.21457965  0.47778366  1
  Li  Li344  1  0.66128290  0.29219920  0.51816630  1
  Li  Li345  1  0.66665461  0.38700427  0.55579451  1
  Li  Li346  1  0.81054499  0.23732532  0.57525402  1
  Li  Li347  1  0.72292037  0.38473018  0.64635139  1
  Li  Li348  1  0.93262320  0.34995577  0.67744318  1
  Li  Li349  1  0.68333800  0.34173727  0.74173179  1
  Li  Li350  1  0.79815704  0.36569141  0.77997520  1
  Li  Li351  1  0.76098701  0.47815653  0.84238855  1
  Li  Li352  1  0.73341425  0.28424228  0.85771299  1
  Li  Li353  1  0.70879249  0.58662384  0.47483216  1
  Li  Li354  1  0.58295207  0.47735859  0.50086069  1
  Li  Li355  1  0.75959023  0.47382821  0.52629409  1
  Li  Li356  1  0.75245580  0.39352594  0.59842622  1
  Li  Li357  1  0.83353033  0.56158715  0.65391645  1
  Li  Li358  1  0.81845172  0.39865288  0.71130469  1
  Li  Li359  1  0.79254213  0.50853035  0.75230418  1
  Li  Li360  1  0.87488659  0.50761307  0.80728957  1
  Li  Li361  1  0.72844384  0.67745692  0.85962223  1
  Li  Li362  1  0.89806082  0.50012153  0.90283044  1
  Li  Li363  1  0.61740531  0.59640867  0.42929554  1
  Li  Li364  1  0.67437856  0.66625513  0.51265238  1
  Li  Li365  1  0.73046428  0.63246316  0.55118061  1
  Li  Li366  1  0.86420250  0.61585380  0.58267582  1
  Li  Li367  1  0.79156924  0.74290919  0.63576175  1
  Li  Li368  1  0.78641578  0.65529860  0.69598729  1
  Li  Li369  1  0.66053439  0.67045547  0.75537319  1
  Li  Li370  1  0.83537675  0.65489475  0.78405417  1
  Li  Li371  1  0.65394868  0.80662652  0.83351678  1
  Li  Li372  1  0.90182447  0.77505385  0.87227888  1
  Li  Li373  1  0.74876367  0.77789175  0.48125052  1
  Li  Li374  1  0.66362153  0.88558405  0.51122639  1
  Li  Li375  1  0.75981705  0.83382992  0.54195626  1
  Li  Li376  1  0.83338410  0.83346365  0.58252944  1
  Li  Li377  1  0.84841788  0.95344298  0.65743113  1
  Li  Li378  1  0.76192308  0.78132186  0.72556386  1
  Li  Li379  1  0.74492987  0.83099782  0.76544963  1
  Li  Li380  1  0.78821738  0.81299941  0.80469322  1
  Li  Li381  1  0.64664667  1.00538687  0.84798790  1
  Li  Li382  1  0.92756464  0.89840046  0.90449023  1
  Li  Li383  1  0.85741463  0.90062406  0.46058712  1
  Li  Li384  1  0.78548294  0.03165409  0.52659871  1
  Li  Li385  1  0.91512337  0.10060943  0.55025784  1
  Li  Li386  1  -0.04088918  0.06730683  0.62951565  1
  Li  Li387  1  0.89511801  0.11843343  0.68073643  1
  Li  Li388  1  0.04053069  0.02076211  0.71716793  1
  Li  Li389  1  0.89178218  0.11532122  0.74371895  1
  Li  Li390  1  -0.01120701  0.06269909  0.77550135  1
  Li  Li391  1  0.84550742  0.10631496  0.83897053  1
  Li  Li392  1  0.08083749  0.07749968  0.89287834  1
  Li  Li393  1  0.81127142  0.00432036  0.49003604  1
  Li  Li394  1  0.85003571  0.19935764  0.50539722  1
  Li  Li395  1  0.85616813  0.29259927  0.53903916  1
  Li  Li396  1  0.02119833  0.22404012  0.57090136  1
  Li  Li397  1  0.85883108  0.23154389  0.61385374  1
  Li  Li398  1  -0.03904290  0.22270692  0.71225899  1
  Li  Li399  1  0.88897891  0.32782230  0.74268701  1
  Li  Li400  1  0.01514301  0.15525261  0.81059127  1
  Li  Li401  1  0.85657980  0.31142006  0.82590050  1
  Li  Li402  1  -0.07302324  0.18797444  0.87190559  1
  Li  Li403  1  0.93803773  0.09813342  0.46730095  1
  Li  Li404  1  0.76814311  0.39880394  0.49201669  1
  Li  Li405  1  0.85635558  0.44707219  0.56309751  1
  Li  Li406  1  -0.03653671  0.39065274  0.59344227  1
  Li  Li407  1  0.92035007  0.39550559  0.63253769  1
  Li  Li408  1  0.04275418  0.41723779  0.70890056  1
  Li  Li409  1  0.96686767  0.47668263  0.77256839  1
  Li  Li410  1  0.04152998  0.35840237  0.80530900  1
  Li  Li411  1  0.90585439  0.38655646  0.86838446  1
  Li  Li412  1  0.00660512  0.30322321  0.89964786  1
  Li  Li413  1  0.89777287  0.29400129  0.46995911  1
  Li  Li414  1  0.90695920  0.49696039  0.47159544  1
  Li  Li415  1  0.95096406  0.55034927  0.53372237  1
  Li  Li416  1  0.04155935  0.55235216  0.56699372  1
  Li  Li417  1  0.85725151  0.55821539  0.61661216  1
  Li  Li418  1  0.07111624  0.46729644  0.65556358  1
  Li  Li419  1  0.90844328  0.57075413  0.72287453  1
  Li  Li420  1  0.06272303  0.65398106  0.77983079  1
  Li  Li421  1  0.87742761  0.66187043  0.83449674  1
  Li  Li422  1  -0.02719746  0.58496399  0.86958336  1
  Li  Li423  1  0.77997556  0.49461080  0.44227690  1
  Li  Li424  1  0.85322804  0.60375391  0.50235568  1
  Li  Li425  1  0.93159840  0.72442626  0.55280027  1
  Li  Li426  1  -0.05892341  0.73793348  0.60946881  1
  Li  Li427  1  0.90513220  0.75092677  0.66939908  1
  Li  Li428  1  -0.02978910  0.56606440  0.68434590  1
  Li  Li429  1  0.90070704  0.69194788  0.75096262  1
  Li  Li430  1  0.00010600  0.75281203  0.80981179  1
  Li  Li431  1  0.86752023  0.88313282  0.84026400  1
  Li  Li432  1  0.01152273  0.69970806  0.90205548  1
  Li  Li433  1  0.93157391  0.70437544  0.47327813  1
  Li  Li434  1  0.86297134  0.82991772  0.50764192  1
  Li  Li435  1  0.99311921  0.92100246  0.56857945  1
  Li  Li436  1  -0.17515681  0.91723430  0.61632955  1
  Li  Li437  1  0.98792110  0.92273831  0.68479358  1
  Li  Li438  1  -0.04354512  0.78421765  0.71113452  1
  Li  Li439  1  0.91120568  0.90783909  0.74317342  1
  Li  Li440  1  -0.04203228  0.84890061  0.77745185  1
  Li  Li441  1  0.92182274  0.97735226  0.80785260  1
  Li  Li442  1  0.07220141  0.89300760  0.87462569  1
  Li  Li443  1  0.02892216  0.89494356  0.48451049  1
  La  La444  1  -0.00577306  0.14556089  0.19224987  1
  La  La445  1  0.45544166  0.39534760  0.19132113  1
  La  La446  1  0.26595965  0.01615219  0.21070917  1
  La  La447  1  0.76500510  0.51656497  0.21198176  1
  La  La448  1  0.88403066  0.76249286  0.22991039  1
  La  La449  1  0.36613626  0.74546138  0.22170589  1
  La  La450  1  0.61649297  0.27073008  0.23030577  1
  La  La451  1  0.12482637  0.24625952  0.22923011  1
  La  La452  1  0.75038140  1.01974281  0.24673335  1
  La  La453  1  0.27214810  0.49073345  0.25060868  1
  La  La454  1  0.50351629  0.11813661  0.26723094  1
  La  La455  1  -0.00499803  0.38487511  0.26568487  1
  La  La456  1  0.50679108  0.64096242  0.26762162  1
  La  La457  1  -0.00305634  0.88744606  0.26842567  1
  La  La458  1  0.75752902  0.51783131  0.28855815  1
  La  La459  1  0.25649952  0.99919710  0.28692909  1
  La  La460  1  0.38625533  0.24354876  0.30966365  1
  La  La461  1  0.88786787  0.25706606  0.30815592  1
  La  La462  1  0.13357681  0.75733923  0.30738803  1
  La  La463  1  0.62910723  0.76946457  0.30771897  1
  La  La464  1  0.25134497  0.50514497  0.32929156  1
  La  La465  1  0.74823687  0.00987359  0.32855993  1
  La  La466  1  0.01268946  0.63060433  0.34832756  1
  La  La467  1  0.50262118  0.88067415  0.34779808  1
  La  La468  1  0.01999031  0.12419381  0.34839170  1
  La  La469  1  0.50746474  0.38687514  0.34952570  1
  La  La470  1  0.26073245  0.99681087  0.36841088  1
  La  La471  1  0.75682635  0.51185232  0.36834123  1
  La  La472  1  0.88785147  0.75600843  0.38838426  1
  La  La473  1  0.36862972  0.76472613  0.38987213  1
  La  La474  1  0.63433989  0.25375527  0.38954969  1
  La  La475  1  0.13922460  0.24973725  0.39021577  1
  La  La476  1  0.78870056  1.00251286  0.41148128  1
  La  La477  1  0.23754982  0.51108809  0.41055663  1
  La  La478  1  0.49522520  0.14005729  0.42693432  1
  La  La479  1  -0.00673989  0.36609585  0.42774735  1
  Zr  Zr480  1  0.81342125  0.75702084  0.18650627  1
  Zr  Zr481  1  0.74029703  0.26711929  0.18823682  1
  Zr  Zr482  1  0.99244345  1.00972886  0.22920019  1
  Zr  Zr483  1  0.50924294  1.00009871  0.22636749  1
  Zr  Zr484  1  0.50610638  0.51166792  0.22868423  1
  Zr  Zr485  1  0.05594348  0.50583067  0.22523705  1
  Zr  Zr486  1  0.75357850  0.25543941  0.26881304  1
  Zr  Zr487  1  0.75845729  0.75674151  0.26975637  1
  Zr  Zr488  1  0.25574066  0.25628884  0.27106491  1
  Zr  Zr489  1  0.26255457  0.75620897  0.26784248  1
  Zr  Zr490  1  0.52312833  0.50191994  0.31023672  1
  Zr  Zr491  1  0.00109253  0.49853631  0.30975210  1
  Zr  Zr492  1  0.01364081  1.00577773  0.30909874  1
  Zr  Zr493  1  0.50083997  0.00504897  0.30854948  1
  Zr  Zr494  1  0.25807473  0.74878177  0.34949870  1
  Zr  Zr495  1  0.27148725  0.25410508  0.35221371  1
  Zr  Zr496  1  0.75265911  0.77173236  0.34984169  1
  Zr  Zr497  1  0.76475306  0.23523439  0.35177603  1
  Zr  Zr498  1  0.02605394  0.00627743  0.39156236  1
  Zr  Zr499  1  0.50651156  0.98727296  0.39277373  1
  Zr  Zr500  1  0.53681068  0.50698392  0.39399381  1
  Zr  Zr501  1  -0.00775293  0.50327773  0.38923436  1
  Zr  Zr502  1  0.76268051  0.24790333  0.43554301  1
  Zr  Zr503  1  0.80812394  0.74893824  0.43405901  1
  O  O504  1  0.77201258  0.88709076  0.18837831  1
  O  O505  1  0.81530206  0.14720292  0.18923494  1
  O  O506  1  0.14389378  0.58253910  0.20731677  1
  O  O507  1  0.30493796  0.44648164  0.19164017  1
  O  O508  1  0.94425982  0.76704149  0.19838983  1
  O  O509  1  0.60406349  0.24204378  0.19621213  1
  O  O510  1  0.37109359  0.67960084  0.19719492  1
  O  O511  1  0.06585161  0.28254587  0.20036272  1
  O  O512  1  0.44771141  0.05523130  0.20459151  1
  O  O513  1  0.03066697  0.98950937  0.20197651  1
  O  O514  1  0.55298244  0.51880430  0.20252507  1
  O  O515  1  0.94085532  0.50338581  0.20745091  1
  O  O516  1  0.21534125  0.84877835  0.21444003  1
  O  O517  1  0.28026727  0.19175687  0.21779559  1
  O  O518  1  0.73562987  0.69282528  0.20430235  1
  O  O519  1  0.79475714  0.33177054  0.20819005  1
  O  O520  1  0.53441951  0.85556181  0.22144438  1
  O  O521  1  0.94428038  0.14787939  0.22021815  1
  O  O522  1  0.01369635  0.64970851  0.23095406  1
  O  O523  1  0.46266090  0.35965884  0.21939299  1
  O  O524  1  0.84566875  0.95415444  0.22161120  1
  O  O525  1  0.65596897  0.05083588  0.21852555  1
  O  O526  1  0.18709653  0.41258875  0.22485600  1
  O  O527  1  0.36129732  0.56174387  0.22779038  1
  O  O528  1  0.35852061  0.98350192  0.23434505  1
  O  O529  1  0.13556684  0.06291190  0.23211870  1
  O  O530  1  0.64927981  0.44332322  0.23433478  1
  O  O531  1  0.81077459  0.59020793  0.23529934  1
  O  O532  1  0.49180263  0.15446252  0.23702830  1
  O  O533  1  0.02103442  0.86837681  0.23834751  1
  O  O534  1  0.98348678  0.36427814  0.23465501  1
  O  O535  1  0.55277526  0.64908093  0.23567994  1
  O  O536  1  0.76347874  0.20259376  0.24330677  1
  O  O537  1  0.72482812  0.79070110  0.24424267  1
  O  O538  1  0.31089751  0.30752693  0.24833930  1
  O  O539  1  0.21849047  0.71564060  0.24374775  1
  O  O540  1  0.93046660  0.02986730  0.25367683  1
  O  O541  1  0.57123928  0.97423299  0.25262621  1
  O  O542  1  0.08240050  0.51805799  0.25314592  1
  O  O543  1  0.46315100  0.47845450  0.25445420  1
  O  O544  1  0.10529089  0.23786212  0.26346685  1
  O  O545  1  0.41064955  0.78606690  0.25994781  1
  O  O546  1  0.59838146  0.28731589  0.26174554  1
  O  O547  1  0.90737738  0.72652582  0.26200538  1
  O  O548  1  0.31148905  0.11632876  0.26414639  1
  O  O549  1  0.21869340  0.90437972  0.26178902  1
  O  O550  1  0.80626165  0.39712472  0.26555018  1
  O  O551  1  0.69079597  0.60821242  0.26602906  1
  O  O552  1  0.22937265  0.40456416  0.27640744  1
  O  O553  1  0.31205715  0.61379975  0.27440079  1
  O  O554  1  0.70626568  0.10034693  0.27368049  1
  O  O555  1  0.80874758  0.89896616  0.27486109  1
  O  O556  1  0.40965860  0.28903152  0.28170954  1
  O  O557  1  0.11273407  0.71218002  0.27781798  1
  O  O558  1  0.89851014  0.21571724  0.27871184  1
  O  O559  1  0.60967589  0.79054611  0.27822744  1
  O  O560  1  0.94399976  0.52569650  0.28576405  1
  O  O561  1  0.57472854  0.46923170  0.28640958  1
  O  O562  1  0.06477896  0.03579935  0.28424511  1
  O  O563  1  0.44278956  0.98271227  0.28409615  1
  O  O564  1  0.71859444  0.28107161  0.29452154  1
  O  O565  1  0.77850549  0.69911219  0.29479915  1
  O  O566  1  0.22724944  0.19703276  0.29614259  1
  O  O567  1  0.27204124  0.81885154  0.29349662  1
  O  O568  1  0.03910458  0.35398756  0.30181673  1
  O  O569  1  0.48302304  0.65248307  0.30328342  1
  O  O570  1  0.53664035  0.15229667  0.30206719  1
  O  O571  1  0.98060812  0.85608745  0.30178878  1
  O  O572  1  0.36833286  0.47206092  0.30747198  1
  O  O573  1  0.15026154  0.54592809  0.30523833  1
  O  O574  1  0.64832287  0.95176489  0.30499186  1
  O  O575  1  0.86109429  0.04372548  0.30543348  1
  O  O576  1  0.86324983  0.43823613  0.31869942  1
  O  O577  1  0.67433766  0.54151237  0.31624455  1
  O  O578  1  0.16303352  0.95662721  0.31500315  1
  O  O579  1  0.35664821  0.05929408  0.31579315  1
  O  O580  1  0.96178672  0.63958813  0.31958648  1
  O  O581  1  0.53639271  0.35836072  0.32062070  1
  O  O582  1  0.46688344  0.86285744  0.31801084  1
  O  O583  1  0.03910743  0.15300757  0.31748884  1
  O  O584  1  0.29232118  0.68856090  0.32531661  1
  O  O585  1  0.22815234  0.31931006  0.32912641  1
  O  O586  1  0.79542247  0.82913572  0.32590069  1
  O  O587  1  0.71515937  0.18873958  0.32828922  1
  O  O588  1  0.49002705  0.54197872  0.33697894  1
  O  O589  1  0.06274501  0.47738909  0.33595530  1
  O  O590  1  0.54546160  0.02964618  0.33466205  1
  O  O591  1  0.98023065  0.97865422  0.33501309  1
  O  O592  1  0.60575460  0.73470593  0.34115783  1
  O  O593  1  0.91170670  0.27525102  0.34542993  1
  O  O594  1  0.10730743  0.78036753  0.34184659  1
  O  O595  1  0.42091236  0.22010126  0.34520727  1
  O  O596  1  0.79038931  0.62212469  0.34681597  1
  O  O597  1  0.69708816  0.38079816  0.35095310  1
  O  O598  1  0.31323947  0.89179455  0.34565961  1
  O  O599  1  0.21461834  0.11753086  0.34604964  1
  O  O600  1  0.69763716  0.91365100  0.35593314  1
  O  O601  1  0.81842116  0.09063048  0.35489602  1
  O  O602  1  0.20764497  0.60350598  0.35641482  1
  O  O603  1  0.32514137  0.40690964  0.35893291  1
  O  O604  1  0.90416432  0.80497013  0.35881628  1
  O  O605  1  0.61867179  0.18808387  0.36244599  1
  O  O606  1  0.39778167  0.70882253  0.36101347  1
  O  O607  1  0.12697960  0.29770704  0.36180388  1
  O  O608  1  0.44862022  0.00913665  0.36854823  1
  O  O609  1  0.08385215  0.99106355  0.36672477  1
  O  O610  1  0.58260442  0.56083648  0.37098385  1
  O  O611  1  0.92925261  0.46752123  0.36576995  1
  O  O612  1  0.22802619  0.81218210  0.37428199  1
  O  O613  1  0.28621747  0.18923143  0.37758809  1
  O  O614  1  0.73037623  0.74304306  0.37640090  1
  O  O615  1  0.79811027  0.25282132  0.37860249  1
  O  O616  1  0.53767585  0.83866707  0.38794430  1
  O  O617  1  0.99420986  0.15478628  0.38469283  1
  O  O618  1  0.02497902  0.64753629  0.38042045  1
  O  O619  1  0.48920396  0.36285235  0.38692326  1
  O  O620  1  0.87009808  0.98316804  0.38652598  1
  O  O621  1  0.65737783  0.02052460  0.39088754  1
  O  O622  1  0.14483685  0.47181417  0.38666145  1
  O  O623  1  0.38309002  0.55150587  0.39250521  1
  O  O624  1  0.35350613  0.94085736  0.39957024  1
  O  O625  1  0.16770538  0.05313092  0.40046985  1
  O  O626  1  0.67712007  0.43697409  0.39696983  1
  O  O627  1  0.85176441  0.56415839  0.39583737  1
  O  O628  1  0.47949142  0.14308675  0.39734278  1
  O  O629  1  0.03243563  0.85489513  0.39260326  1
  O  O630  1  0.95818348  0.36225784  0.39802295  1
  O  O631  1  0.58699694  0.64058210  0.40490395  1
  O  O632  1  0.85302611  0.18531072  0.41872866  1
  O  O633  1  0.75600590  0.82957840  0.41434704  1
  O  O634  1  0.29728564  0.34634743  0.40540222  1
  O  O635  1  0.19846416  0.67068617  0.40407162  1
  O  O636  1  0.97513555  -0.00056934  0.41775702  1
  O  O637  1  0.52776184  0.97940610  0.42062985  1
  O  O638  1  0.03201079  0.52073332  0.41651494  1
  O  O639  1  0.51221375  0.47849408  0.42095993  1
  O  O640  1  0.10080164  0.23427799  0.42301632  1
  O  O641  1  0.38864289  0.75406145  0.42045805  1
  O  O642  1  0.63270700  0.25377614  0.42144312  1
  O  O643  1  0.94700711  0.73029823  0.42189957  1
  O  O644  1  0.32083045  0.13627383  0.42668213  1
  O  O645  1  0.14618746  0.85951105  0.43031248  1
  O  O646  1  0.80705534  0.38646991  0.42848173  1
  O  O647  1  0.76347395  0.61026375  0.42943283  1
