# generated using pymatgen
data_Li102La9Zr5O34
_symmetry_space_group_name_H-M   'P 1'
_cell_length_a   13.24308733
_cell_length_b   13.72659194
_cell_length_c   73.68434408
_cell_angle_alpha   90.00807727
_cell_angle_beta   89.91204550
_cell_angle_gamma   90.08079032
_symmetry_Int_Tables_number   1
_chemical_formula_structural   Li102La9Zr5O34
_chemical_formula_sum   'Li408 La36 Zr20 O136'
_cell_volume   13394.49179380
_cell_formula_units_Z   4
loop_
 _symmetry_equiv_pos_site_id
 _symmetry_equiv_pos_as_xyz
  1  'x, y, z'
loop_
 _atom_site_type_symbol
 _atom_site_label
 _atom_site_symmetry_multiplicity
 _atom_site_fract_x
 _atom_site_fract_y
 _atom_site_fract_z
 _atom_site_occupancy
  Li  Li0  1  0.88603361  0.94881085  0.20888207  1
  Li  Li1  1  0.56690017  0.08888749  0.21221541  1
  Li  Li2  1  0.17989601  0.38509995  0.20984984  1
  Li  Li3  1  0.36693996  0.55526356  0.21315109  1
  Li  Li4  1  0.60245153  0.64667056  0.21655765  1
  Li  Li5  1  0.98014900  0.37192634  0.20726462  1
  Li  Li6  1  0.10526129  0.85156547  0.21201468  1
  Li  Li7  1  0.40236667  0.15923723  0.21827165  1
  Li  Li8  1  0.68265538  0.89827527  0.23103603  1
  Li  Li9  1  0.77617979  0.06076333  0.22429806  1
  Li  Li10  1  0.18484842  0.58236950  0.23141677  1
  Li  Li11  1  0.30273236  0.42550209  0.23288670  1
  Li  Li12  1  0.86972310  0.24754323  0.24192688  1
  Li  Li13  1  0.62405010  0.73363987  0.24519443  1
  Li  Li14  1  0.37089978  0.25313776  0.24521716  1
  Li  Li15  1  0.11979301  0.75790256  0.24069982  1
  Li  Li16  1  0.32619971  0.10133436  0.25592489  1
  Li  Li17  1  0.16428749  0.88643185  0.25744600  1
  Li  Li18  1  0.82748178  0.39615103  0.25845364  1
  Li  Li19  1  0.71618024  0.57965354  0.26014197  1
  Li  Li20  1  0.43588757  0.34060942  0.27033506  1
  Li  Li21  1  0.07730854  0.66611986  0.26559003  1
  Li  Li22  1  0.93844289  0.15715143  0.26779379  1
  Li  Li23  1  0.57984586  0.84217730  0.26604941  1
  Li  Li24  1  0.32646642  0.94690037  0.27525781  1
  Li  Li25  1  0.15380488  0.06186163  0.27225991  1
  Li  Li26  1  0.63639455  0.41626892  0.27384200  1
  Li  Li27  1  0.92037438  0.57455056  0.27639880  1
  Li  Li28  1  0.41170299  0.42515932  0.29889165  1
  Li  Li29  1  0.11635328  0.58932849  0.29880022  1
  Li  Li30  1  0.65963398  0.94565753  0.30071501  1
  Li  Li31  1  0.84259027  0.06676589  0.30138083  1
  Li  Li32  1  0.03068319  0.14851646  0.29796796  1
  Li  Li33  1  0.48222837  0.88026100  0.29182845  1
  Li  Li34  1  0.57130342  0.32695260  0.30271043  1
  Li  Li35  1  0.93493939  0.67092817  0.30288213  1
  Li  Li36  1  0.21345778  0.43675768  0.31408047  1
  Li  Li37  1  0.31514020  0.59922567  0.31677695  1
  Li  Li38  1  0.66960206  0.11079060  0.31831012  1
  Li  Li39  1  0.81852374  0.90961606  0.32008756  1
  Li  Li40  1  0.37139333  0.77685812  0.32705144  1
  Li  Li41  1  0.11840769  0.25389387  0.32977457  1
  Li  Li42  1  0.86581674  0.74640709  0.33169446  1
  Li  Li43  1  0.61402214  0.25486908  0.33326634  1
  Li  Li44  1  0.80412516  0.58391766  0.34312571  1
  Li  Li45  1  0.69969158  0.42458477  0.34530336  1
  Li  Li46  1  0.27917584  0.92906679  0.34767039  1
  Li  Li47  1  0.19535176  0.09150689  0.34654137  1
  Li  Li48  1  0.91463058  0.84536656  0.35546556  1
  Li  Li49  1  0.56355657  0.16602743  0.36144019  1
  Li  Li50  1  0.41644669  0.66372741  0.34853745  1
  Li  Li51  1  0.07115793  0.34154685  0.35919995  1
  Li  Li52  1  0.89422805  0.42136106  0.36044217  1
  Li  Li53  1  0.64343786  0.58998593  0.36000387  1
  Li  Li54  1  0.08021688  0.92278329  0.36416802  1
  Li  Li55  1  0.40359825  0.08231348  0.36299235  1
  Li  Li56  1  0.90679561  0.92878362  0.38558874  1
  Li  Li57  1  0.65029743  0.06905315  0.38981321  1
  Li  Li58  1  0.15748797  0.45104654  0.38903058  1
  Li  Li59  1  0.32481628  0.55702762  0.38814716  1
  Li  Li60  1  0.49195136  0.62388713  0.37619409  1
  Li  Li61  1  0.96313688  0.35887093  0.38933647  1
  Li  Li62  1  0.07223748  0.81975018  0.39082109  1
  Li  Li63  1  0.44757316  0.16298651  0.39154544  1
  Li  Li64  1  0.65877375  0.88694134  0.40517229  1
  Li  Li65  1  0.83484729  0.10155087  0.40579992  1
  Li  Li66  1  0.15031882  0.62316612  0.40355879  1
  Li  Li67  1  0.32886813  0.40162725  0.40709811  1
  Li  Li68  1  0.86086933  0.27231503  0.41633654  1
  Li  Li69  1  0.58113931  0.68933975  0.40272690  1
  Li  Li70  1  0.36527009  0.24559569  0.41787435  1
  Li  Li71  1  0.12186304  0.75932356  0.42145405  1
  Li  Li72  1  0.30016685  0.07787275  0.43071006  1
  Li  Li73  1  0.19352651  0.92126262  0.43299569  1
  Li  Li74  1  0.77434266  0.44058000  0.43552861  1
  Li  Li75  1  0.68856636  0.60623030  0.42936770  1
  Li  Li76  1  0.41535370  0.35283535  0.43970493  1
  Li  Li77  1  0.06351177  0.65736545  0.44223565  1
  Li  Li78  1  0.93028039  0.15920640  0.43641843  1
  Li  Li79  1  0.58764325  0.78520289  0.43093224  1
  Li  Li80  1  0.39699108  0.91481777  0.45112408  1
  Li  Li81  1  0.13969127  0.09918457  0.44754494  1
  Li  Li82  1  0.58313404  0.41765527  0.44982574  1
  Li  Li83  1  0.87717693  0.57657195  0.45227419  1
  Li  Li84  1  0.09077974  0.90301677  0.51989043  1
  Li  Li85  1  0.11025985  0.04677731  0.54950692  1
  Li  Li86  1  0.23499901  0.00446168  0.64655533  1
  Li  Li87  1  0.03425232  0.08630629  0.65822313  1
  Li  Li88  1  0.22553162  -0.02491276  0.71010272  1
  Li  Li89  1  0.11669935  0.14973135  0.72795622  1
  Li  Li90  1  0.11052021  0.01962638  0.77261825  1
  Li  Li91  1  0.13876981  0.12037779  0.87308894  1
  Li  Li92  1  0.94076429  0.07825328  0.46691143  1
  Li  Li93  1  0.98349304  0.18199390  0.53295645  1
  Li  Li94  1  0.08274695  0.22272135  0.56636895  1
  Li  Li95  1  0.15458775  0.22132925  0.60296842  1
  Li  Li96  1  0.05787169  0.28661489  0.66576686  1
  Li  Li97  1  0.18539366  0.15573427  0.68319542  1
  Li  Li98  1  0.12558876  0.20446685  0.76472864  1
  Li  Li99  1  0.11753212  0.21449871  0.80578762  1
  Li  Li100  1  0.08991277  0.33735582  0.87467137  1
  Li  Li101  1  0.08926493  0.19381505  0.47942394  1
  Li  Li102  1  0.02888912  0.38179683  0.54326902  1
  Li  Li103  1  0.10380695  0.39207097  0.58233046  1
  Li  Li104  1  0.11079817  0.35682977  0.62963039  1
  Li  Li105  1  0.06064212  0.49454077  0.65837615  1
  Li  Li106  1  0.22263306  0.29791600  0.70792739  1
  Li  Li107  1  0.08097472  0.34671859  0.73700364  1
  Li  Li108  1  0.24243989  0.36478827  0.77569346  1
  Li  Li109  1  0.08799361  0.37971359  0.83413452  1
  Li  Li110  1  0.96871786  0.41909911  0.50491277  1
  Li  Li111  1  0.05673153  0.58050204  0.54939579  1
  Li  Li112  1  0.15879818  0.58853069  0.58128368  1
  Li  Li113  1  0.23664094  0.46677759  0.60581927  1
  Li  Li114  1  0.06255540  0.61071125  0.68935453  1
  Li  Li115  1  0.26790454  0.55224049  0.70016671  1
  Li  Li116  1  0.09915991  0.50078262  0.76234331  1
  Li  Li117  1  0.14021656  0.48852559  0.80130526  1
  Li  Li118  1  0.06807991  0.55285039  0.86391758  1
  Li  Li119  1  0.05666359  0.57140285  0.47789139  1
  Li  Li120  1  0.98537712  0.64995037  0.51562687  1
  Li  Li121  1  0.13916271  0.79270567  0.58168517  1
  Li  Li122  1  0.17198016  0.68494308  0.61366132  1
  Li  Li123  1  0.01944987  0.77869096  0.67518368  1
  Li  Li124  1  0.16221028  0.62352766  0.72840876  1
  Li  Li125  1  -0.01040752  0.82589001  0.75785349  1
  Li  Li126  1  0.16343430  0.70152527  0.82738231  1
  Li  Li127  1  0.00848377  0.76582905  0.85546847  1
  Li  Li128  1  0.99361181  0.90103156  0.45196149  1
  Li  Li129  1  0.01792894  0.77388240  0.54626074  1
  Li  Li130  1  0.13814630  0.99107869  0.58719108  1
  Li  Li131  1  0.14885541  0.83457351  0.64404708  1
  Li  Li132  1  0.12960228  0.94649993  0.67618095  1
  Li  Li133  1  0.17800566  0.78196093  0.70055007  1
  Li  Li134  1  0.06130910  0.95981462  0.73321831  1
  Li  Li135  1  0.14527360  0.84952317  0.79128123  1
  Li  Li136  1  0.18771351  0.90653857  0.87302879  1
  Li  Li137  1  0.08243862  0.95541039  0.48551236  1
  Li  Li138  1  0.15922761  0.09143038  0.51137128  1
  Li  Li139  1  0.26030661  0.13484260  0.57282400  1
  Li  Li140  1  0.41403767  -0.05837504  0.63944158  1
  Li  Li141  1  0.35347730  0.05973350  0.67437219  1
  Li  Li142  1  0.41552472  -0.08516980  0.70171584  1
  Li  Li143  1  0.26483322  0.06012941  0.74683806  1
  Li  Li144  1  0.25343607  0.03891194  0.80337982  1
  Li  Li145  1  0.37413769  0.08784691  0.86561099  1
  Li  Li146  1  0.25587505  0.04711192  0.47405649  1
  Li  Li147  1  0.20297908  0.25454377  0.53989927  1
  Li  Li148  1  0.29756815  0.32739319  0.57675905  1
  Li  Li149  1  0.28060595  0.07532161  0.61217021  1
  Li  Li150  1  0.21181071  0.19483033  0.64510603  1
  Li  Li151  1  0.35674908  0.13363301  0.71363600  1
  Li  Li152  1  0.29876900  0.25842350  0.74282298  1
  Li  Li153  1  0.32605809  0.18856981  0.78200565  1
  Li  Li154  1  0.25710791  0.28107784  0.85236534  1
  Li  Li155  1  0.29240132  0.23435351  0.49204818  1
  Li  Li156  1  0.10786159  0.29384697  0.51037590  1
  Li  Li157  1  0.22670001  0.45182840  0.55041959  1
  Li  Li158  1  0.31275428  0.30909050  0.62050146  1
  Li  Li159  1  0.23295384  0.38408594  0.66332383  1
  Li  Li160  1  0.36515627  0.25882746  0.68251077  1
  Li  Li161  1  0.24612580  0.45024005  0.73524587  1
  Li  Li162  1  0.27017006  0.32749521  0.81371783  1
  Li  Li163  1  0.28092611  0.46883916  0.87326879  1
  Li  Li164  1  0.19516442  0.41512607  0.48569524  1
  Li  Li165  1  0.14227754  0.51651013  0.51648783  1
  Li  Li166  1  0.34634922  0.54792447  0.57571597  1
  Li  Li167  1  0.40943979  0.48393350  0.63200287  1
  Li  Li168  1  0.22221310  0.54343179  0.63937106  1
  Li  Li169  1  0.40246095  0.37615379  0.71519157  1
  Li  Li170  1  0.30698902  0.54672146  0.76787237  1
  Li  Li171  1  0.36135555  0.50736981  0.80369706  1
  Li  Li172  1  0.22925887  0.52169680  0.83664746  1
  Li  Li173  1  0.27076054  0.61943024  0.48891094  1
  Li  Li174  1  0.24640278  0.67355901  0.55007393  1
  Li  Li175  1  0.33310018  0.74909678  0.58180522  1
  Li  Li176  1  0.36480772  0.62487381  0.61063133  1
  Li  Li177  1  0.20490043  0.67835492  0.66750862  1
  Li  Li178  1  0.38817159  0.70872601  0.69408619  1
  Li  Li179  1  0.16908099  0.69413636  0.76102382  1
  Li  Li180  1  0.26673113  0.67496636  0.79560705  1
  Li  Li181  1  0.23764428  0.69268199  0.86359308  1
  Li  Li182  1  0.18291513  0.72601777  0.51778586  1
  Li  Li183  1  0.19813660  0.87533945  0.55275304  1
  Li  Li184  1  0.25294887  0.87725548  0.61145493  1
  Li  Li185  1  0.32725967  0.75581976  0.63794516  1
  Li  Li186  1  0.30067323  0.85908629  0.67178338  1
  Li  Li187  1  0.30403410  0.76650866  0.72741013  1
  Li  Li188  1  0.20925113  0.87113350  0.75197680  1
  Li  Li189  1  0.33420872  0.84456025  0.81131579  1
  Li  Li190  1  0.16587268  0.90061135  0.83406287  1
  Li  Li191  1  0.27192829  0.85836130  0.48927852  1
  Li  Li192  1  0.29144300  0.92018880  0.52244442  1
  Li  Li193  1  0.33590425  -0.04976926  0.57801836  1
  Li  Li194  1  0.47696955  0.01080839  0.60535308  1
  Li  Li195  1  0.42123863  0.14296869  0.63848640  1
  Li  Li196  1  0.54501227  0.04041340  0.72030571  1
  Li  Li197  1  0.45622721  0.12823106  0.75331650  1
  Li  Li198  1  0.43330080  0.01458848  0.82736833  1
  Li  Li199  1  0.22096309  0.09815815  0.83751602  1
  Li  Li200  1  0.38271601  0.05273079  0.50134103  1
  Li  Li201  1  0.32138235  0.10024554  0.53613907  1
  Li  Li202  1  0.45731830  0.09547634  0.56527752  1
  Li  Li203  1  0.41710511  0.19898477  0.59717880  1
  Li  Li204  1  0.40937963  0.32767418  0.65136440  1
  Li  Li205  1  0.53248729  0.15185258  0.68880557  1
  Li  Li206  1  0.54000040  0.23981807  0.72652131  1
  Li  Li207  1  0.41957858  0.21028281  0.82705867  1
  Li  Li208  1  0.47021863  0.31540969  0.86844582  1
  Li  Li209  1  0.23318621  0.25565340  0.45276787  1
  Li  Li210  1  0.30649706  0.37766441  0.51679307  1
  Li  Li211  1  0.43617451  0.42249318  0.59600547  1
  Li  Li212  1  0.53984014  0.32922284  0.62170902  1
  Li  Li213  1  0.39233218  0.46097916  0.67899583  1
  Li  Li214  1  0.55371141  0.35599216  0.68805204  1
  Li  Li215  1  0.44527858  0.37801457  0.75735451  1
  Li  Li216  1  0.47827057  0.33874369  0.79666235  1
  Li  Li217  1  0.40035068  0.42045498  0.83813051  1
  Li  Li218  1  0.49392162  0.60893020  0.45159827  1
  Li  Li219  1  0.39962837  0.43514096  0.47479200  1
  Li  Li220  1  0.44733389  0.45847956  0.54945392  1
  Li  Li221  1  0.59561415  0.51988771  0.61243430  1
  Li  Li222  1  0.38016000  0.61279345  0.65982557  1
  Li  Li223  1  0.49788598  0.54803423  0.70719307  1
  Li  Li224  1  0.39616384  0.58720079  0.73700769  1
  Li  Li225  1  0.52129088  0.55075023  0.77534875  1
  Li  Li226  1  0.38612462  0.66926578  0.83422183  1
  Li  Li227  1  0.44592419  0.76160434  0.47672437  1
  Li  Li228  1  0.34832900  0.56515566  0.52338215  1
  Li  Li229  1  0.47226407  0.65612527  0.55231443  1
  Li  Li230  1  0.52103269  0.66545236  0.63475293  1
  Li  Li231  1  0.47747108  0.79462188  0.66438411  1
  Li  Li232  1  0.50607757  0.75208628  0.72492389  1
  Li  Li233  1  0.38929662  0.75241847  0.76570570  1
  Li  Li234  1  0.49300498  0.69999483  0.80112123  1
  Li  Li235  1  0.43125006  0.76863612  0.87485879  1
  Li  Li236  1  0.22719690  0.74051778  0.45888398  1
  Li  Li237  1  0.39688865  0.74573831  0.51528866  1
  Li  Li238  1  0.40205338  0.83230443  0.54961821  1
  Li  Li239  1  0.45577427  0.81620651  0.60871974  1
  Li  Li240  1  0.53863968  0.97884710  0.67162565  1
  Li  Li241  1  0.42145473  0.92129389  0.74021778  1
  Li  Li242  1  0.35614640  0.95951970  0.77582616  1
  Li  Li243  1  0.51965395  0.90181111  0.79611946  1
  Li  Li244  1  0.35021295  0.88248020  0.84895728  1
  Li  Li245  1  0.49323478  0.89478885  0.50218153  1
  Li  Li246  1  0.48718808  -0.01238017  0.53402287  1
  Li  Li247  1  0.63056006  0.09734040  0.57998216  1
  Li  Li248  1  0.68161673  -0.03364724  0.60936027  1
  Li  Li249  1  0.60931909  0.05136255  0.64022701  1
  Li  Li250  1  0.71166701  0.01037550  0.70030926  1
  Li  Li251  1  0.50505597  0.10512707  0.79416276  1
  Li  Li252  1  0.64519343  0.00438649  0.82364901  1
  Li  Li253  1  0.58003065  0.14955966  0.84947022  1
  Li  Li254  1  0.58317766  0.07910737  0.50380549  1
  Li  Li255  1  0.40543379  0.27563458  0.54626483  1
  Li  Li256  1  0.54286605  0.28705261  0.57435015  1
  Li  Li257  1  0.60533561  0.16501081  0.61245755  1
  Li  Li258  1  0.58021498  0.24230388  0.65525926  1
  Li  Li259  1  0.71336246  0.09465805  0.74299025  1
  Li  Li260  1  0.60513276  0.23896291  0.76905239  1
  Li  Li261  1  0.66518709  0.20692795  0.81057768  1
  Li  Li262  1  0.59045171  0.34754386  0.83391503  1
  Li  Li263  1  0.45944015  0.23310713  0.51051876  1
  Li  Li264  1  0.57763706  0.30474616  0.47840576  1
  Li  Li265  1  0.58919679  0.48177501  0.57595788  1
  Li  Li266  1  0.70744584  0.33107258  0.59671993  1
  Li  Li267  1  0.56331891  0.46820569  0.65497947  1
  Li  Li268  1  0.70967792  0.23243923  0.70282717  1
  Li  Li269  1  0.58988807  0.43028755  0.73126511  1
  Li  Li270  1  0.68582646  0.40223730  0.79947482  1
  Li  Li271  1  0.54573515  0.52331569  0.81994916  1
  Li  Li272  1  0.73965509  0.24889951  0.45205159  1
  Li  Li273  1  0.50516784  0.42550745  0.51076287  1
  Li  Li274  1  0.51862783  0.65324196  0.58800553  1
  Li  Li275  1  0.71438345  0.41579995  0.63565045  1
  Li  Li276  1  0.55196542  0.61473612  0.67713858  1
  Li  Li277  1  0.70380421  0.46010944  0.70059007  1
  Li  Li278  1  0.60607344  0.61715742  0.74159706  1
  Li  Li279  1  0.69010381  0.44600777  0.76422160  1
  Li  Li280  1  0.47518161  0.56273047  0.86213237  1
  Li  Li281  1  0.47965509  0.59215717  0.49103624  1
  Li  Li282  1  0.56697184  0.62258634  0.51984763  1
  Li  Li283  1  0.65894071  0.74345587  0.56566462  1
  Li  Li284  1  0.71387196  0.63341556  0.63318049  1
  Li  Li285  1  0.59955994  0.83603115  0.69461773  1
  Li  Li286  1  0.67210705  0.66274542  0.70601339  1
  Li  Li287  1  0.59750780  0.76809348  0.76659763  1
  Li  Li288  1  0.69157662  0.61474904  0.79820019  1
  Li  Li289  1  0.54110900  0.82027569  0.83409450  1
  Li  Li290  1  0.64895842  0.76715634  0.49340907  1
  Li  Li291  1  0.59462964  0.80892908  0.53258551  1
  Li  Li292  1  0.54494481  0.89418103  0.57516856  1
  Li  Li293  1  0.65649341  0.76284739  0.60446366  1
  Li  Li294  1  0.59648257  0.85242179  0.63627818  1
  Li  Li295  1  0.65030780  0.87791079  0.73132931  1
  Li  Li296  1  0.58057832  0.97927547  0.76334413  1
  Li  Li297  1  0.70065124  0.82193851  0.80321364  1
  Li  Li298  1  0.56695140  0.94307767  0.86364801  1
  Li  Li299  1  0.58729769  0.93695350  0.47029735  1
  Li  Li300  1  0.67274591  0.99867421  0.54715901  1
  Li  Li301  1  0.87187271  0.09338251  0.56253126  1
  Li  Li302  1  0.89462975  -0.03024475  0.60603911  1
  Li  Li303  1  0.82770251  0.04563982  0.63886060  1
  Li  Li304  1  0.85172425  -0.06711491  0.72561545  1
  Li  Li305  1  0.73804807  0.05165133  0.78678020  1
  Li  Li306  1  0.84118459  -0.06896206  0.82204302  1
  Li  Li307  1  0.77045409  0.04791940  0.85581058  1
  Li  Li308  1  0.74191544  0.10906972  0.48444219  1
  Li  Li309  1  0.57645233  0.16862671  0.53784904  1
  Li  Li310  1  0.72402470  0.22564612  0.55983989  1
  Li  Li311  1  0.80380395  0.14932619  0.59878411  1
  Li  Li312  1  0.71504932  0.11849981  0.66946819  1
  Li  Li313  1  0.87212966  0.12882766  0.71627731  1
  Li  Li314  1  0.80438517  0.27091141  0.77858868  1
  Li  Li315  1  0.85211063  0.12607419  0.82165236  1
  Li  Li316  1  0.76748739  0.26710139  0.84612700  1
  Li  Li317  1  0.67543008  0.26847890  0.50876662  1
  Li  Li318  1  0.61951678  0.36796888  0.54051158  1
  Li  Li319  1  0.77186167  0.42784352  0.56467993  1
  Li  Li320  1  0.76074858  0.22780860  0.63393216  1
  Li  Li321  1  0.74189504  0.34147016  0.66977232  1
  Li  Li322  1  0.86700525  0.35873646  0.71534744  1
  Li  Li323  1  0.73733766  0.29592535  0.73945936  1
  Li  Li324  1  0.89923424  0.33007888  0.81504440  1
  Li  Li325  1  0.66917792  0.46584240  0.86294644  1
  Li  Li326  1  0.70660184  0.47240146  0.51140758  1
  Li  Li327  1  0.66736722  0.57043299  0.54722731  1
  Li  Li328  1  0.74715943  0.60140845  0.58812870  1
  Li  Li329  1  0.82828360  0.47641200  0.60940133  1
  Li  Li330  1  0.73972728  0.54914308  0.66878206  1
  Li  Li331  1  0.91199054  0.43194803  0.68157493  1
  Li  Li332  1  0.79253909  0.53594299  0.73054611  1
  Li  Li333  1  0.77611329  0.48881988  0.82890316  1
  Li  Li334  1  0.64355067  0.65445670  0.83822317  1
  Li  Li335  1  0.67471922  0.58671504  0.47959971  1
  Li  Li336  1  0.77015921  0.68212436  0.51912638  1
  Li  Li337  1  0.83483042  0.79029824  0.58791450  1
  Li  Li338  1  0.88931383  0.66653169  0.61596216  1
  Li  Li339  1  0.67259976  0.73760383  0.66441376  1
  Li  Li340  1  0.86744416  0.61884017  0.69592702  1
  Li  Li341  1  0.76195864  0.63544998  0.76459347  1
  Li  Li342  1  0.88604968  0.51472824  0.79122575  1
  Li  Li343  1  0.64337887  0.70906434  0.87464196  1
  Li  Li344  1  0.72350709  0.77768893  0.45649931  1
  Li  Li345  1  0.80221856  0.83547131  0.54542419  1
  Li  Li346  1  0.76025899  0.94637850  0.57655474  1
  Li  Li347  1  0.80028349  0.82976765  0.62890288  1
  Li  Li348  1  0.73127518  0.91516949  0.66200948  1
  Li  Li349  1  0.81077832  0.81353139  0.69404075  1
  Li  Li350  1  0.77540374  0.87863288  0.76322674  1
  Li  Li351  1  0.87158356  0.74293912  0.78723032  1
  Li  Li352  1  0.76796195  0.83306796  0.85093501  1
  Li  Li353  1  0.71998714  0.93365612  0.51196547  1
  Li  Li354  1  0.90720557  0.83149324  0.51118948  1
  Li  Li355  1  0.99736616  0.11759347  0.59060225  1
  Li  Li356  1  0.08185285  0.01343247  0.62289080  1
  Li  Li357  1  0.88609627  -0.00764003  0.67890216  1
  Li  Li358  1  0.03274313  0.07353703  0.69820625  1
  Li  Li359  1  0.91370180  0.04114937  0.75542331  1
  Li  Li360  1  0.04367064  0.02703580  0.81484705  1
  Li  Li361  1  0.91159181  0.18835684  0.87395895  1
  Li  Li362  1  0.94055542  0.04721805  0.50427913  1
  Li  Li363  1  0.77850228  0.12021146  0.52503568  1
  Li  Li364  1  0.90348108  0.28980344  0.56932815  1
  Li  Li365  1  -0.02121427  0.17773094  0.62815293  1
  Li  Li366  1  0.88583239  0.20208499  0.67560513  1
  Li  Li367  1  0.01580560  0.26525681  0.70295239  1
  Li  Li368  1  0.93190199  0.22681725  0.74751361  1
  Li  Li369  1  -0.05216940  0.14465293  0.78761549  1
  Li  Li370  1  1.01952348  0.19813341  0.84133559  1
  Li  Li371  1  0.89339920  0.23637613  0.49753622  1
  Li  Li372  1  0.82957038  0.31994015  0.53150695  1
  Li  Li373  1  0.93931350  0.49443716  0.57696205  1
  Li  Li374  1  -0.05766228  0.31940097  0.60398866  1
  Li  Li375  1  0.91106383  0.35188908  0.64294232  1
  Li  Li376  1  0.11386072  0.42798995  0.69384695  1
  Li  Li377  1  0.89704450  0.42691430  0.75475704  1
  Li  Li378  1  0.01688121  0.34724228  0.78244980  1
  Li  Li379  1  0.90652780  0.40393052  0.85619767  1
  Li  Li380  1  0.77771782  0.38838747  0.47854179  1
  Li  Li381  1  0.87131970  0.51043620  0.53406205  1
  Li  Li382  1  0.98759045  0.67836761  0.58440290  1
  Li  Li383  1  0.03436897  0.52131131  0.61412498  1
  Li  Li384  1  0.88324421  0.53600265  0.64508482  1
  Li  Li385  1  -0.00032869  0.51029948  0.72152975  1
  Li  Li386  1  0.95687822  0.62823720  0.75379620  1
  Li  Li387  1  -0.00949193  0.56500063  0.82758749  1
  Li  Li388  1  0.84207530  0.61672287  0.86049893  1
  Li  Li389  1  0.86024143  0.55721609  0.49348620  1
  Li  Li390  1  0.85270391  0.65567808  0.55676277  1
  Li  Li391  1  0.97269620  0.91227217  0.57164173  1
  Li  Li392  1  0.03920790  0.67236844  0.64241280  1
  Li  Li393  1  0.86197305  0.72034410  0.65918382  1
  Li  Li394  1  -0.00289707  0.73267970  0.72101874  1
  Li  Li395  1  0.79992603  0.74060502  0.73309956  1
  Li  Li396  1  0.04951530  0.65949675  0.79157035  1
  Li  Li397  1  0.83545035  0.69595661  0.82378327  1
  Li  Li398  1  0.06603430  0.76584806  0.48701711  1
  Li  Li399  1  0.86921053  0.72678615  0.48078525  1
  Li  Li400  1  0.92104452  0.97715411  0.53682016  1
  Li  Li401  1  0.02077864  0.82462027  0.61224717  1
  Li  Li402  1  0.95935388  0.89969992  0.64753143  1
  Li  Li403  1  -0.00090326  0.89026774  0.70242040  1
  Li  Li404  1  0.92826529  0.93667172  0.78845097  1
  Li  Li405  1  -0.00230108  0.81211790  0.81818062  1
  Li  Li406  1  0.98460409  0.98652389  0.85255707  1
  Li  Li407  1  0.82922627  0.91759032  0.48170689  1
  La  La408  1  -0.00371294  0.13219657  0.20405706  1
  La  La409  1  0.47516227  0.37374459  0.20680897  1
  La  La410  1  0.25745072  0.99577157  0.22411651  1
  La  La411  1  0.75979089  0.49042958  0.22530888  1
  La  La412  1  0.86746548  0.74066391  0.24498372  1
  La  La413  1  0.36231040  0.76330787  0.24588875  1
  La  La414  1  0.62213210  0.24368050  0.24322195  1
  La  La415  1  0.12554171  0.24877448  0.24272099  1
  La  La416  1  0.74754123  1.00577912  0.26533431  1
  La  La417  1  0.24328144  0.49001789  0.26886773  1
  La  La418  1  0.49592992  0.12115558  0.28649559  1
  La  La419  1  0.00289284  0.37147176  0.28725940  1
  La  La420  1  0.49594273  0.63755028  0.28730996  1
  La  La421  1  0.99266391  0.88116315  0.28659070  1
  La  La422  1  0.74418846  0.51053112  0.30659272  1
  La  La423  1  0.23947108  0.00507819  0.30973711  1
  La  La424  1  0.37270348  0.24728745  0.32976134  1
  La  La425  1  0.86784845  0.25096433  0.32937633  1
  La  La426  1  0.11259361  0.76125485  0.33078486  1
  La  La427  1  0.61785721  0.76520471  0.32971619  1
  La  La428  1  0.23940853  0.50129062  0.35111051  1
  La  La429  1  0.73703409  0.00855648  0.35406158  1
  La  La430  1  0.98575363  0.62644382  0.37108356  1
  La  La431  1  0.49132316  0.87428777  0.37299089  1
  La  La432  1  -0.00879523  0.13615729  0.37336419  1
  La  La433  1  0.49444934  0.38347822  0.37270039  1
  La  La434  1  0.24237495  1.01363953  0.39289130  1
  La  La435  1  0.74149972  0.50145731  0.39377758  1
  La  La436  1  0.86349714  0.76427550  0.41582791  1
  La  La437  1  0.35775785  0.74575381  0.41550250  1
  La  La438  1  0.61982165  0.25922873  0.41735495  1
  La  La439  1  0.12234657  0.25691114  0.41609126  1
  La  La440  1  0.74968127  1.00305449  0.43683593  1
  La  La441  1  0.24167121  0.50926050  0.43842084  1
  La  La442  1  0.46990988  0.13942843  0.45721657  1
  La  La443  1  0.98427219  0.36497390  0.45601928  1
  Zr  Zr444  1  0.98845411  0.98871768  0.24241043  1
  Zr  Zr445  1  0.50096175  0.99481080  0.24355538  1
  Zr  Zr446  1  0.48707171  0.51752936  0.24606218  1
  Zr  Zr447  1  0.00458865  0.49431102  0.24335212  1
  Zr  Zr448  1  0.74651204  0.24204708  0.28696239  1
  Zr  Zr449  1  0.74732150  0.75649162  0.28803828  1
  Zr  Zr450  1  0.24483610  0.24262782  0.28763874  1
  Zr  Zr451  1  0.23970641  0.76290502  0.28886703  1
  Zr  Zr452  1  0.50008107  0.50146969  0.33046575  1
  Zr  Zr453  1  0.99019609  0.49544109  0.32935058  1
  Zr  Zr454  1  0.99329881  0.00799752  0.33252561  1
  Zr  Zr455  1  0.48896272  0.00306319  0.33120983  1
  Zr  Zr456  1  0.24326721  0.74089447  0.37307032  1
  Zr  Zr457  1  0.25123193  0.26187898  0.37490656  1
  Zr  Zr458  1  0.73898446  0.75740428  0.37399688  1
  Zr  Zr459  1  0.74431948  0.25466356  0.37549363  1
  Zr  Zr460  1  0.01201724  0.99850643  0.41793860  1
  Zr  Zr461  1  0.48333885  0.98834615  0.41815198  1
  Zr  Zr462  1  0.50174440  0.50719864  0.41883660  1
  Zr  Zr463  1  0.97947116  0.51527043  0.41821566  1
  O  O464  1  0.21969039  0.82986920  0.22688073  1
  O  O465  1  0.27669957  0.16787047  0.23251574  1
  O  O466  1  0.72224234  0.66210247  0.23107774  1
  O  O467  1  0.76091767  0.33188115  0.23438895  1
  O  O468  1  0.54376489  0.85171810  0.23997640  1
  O  O469  1  0.97456446  0.14198314  0.23708613  1
  O  O470  1  0.04719098  0.63824804  0.23932082  1
  O  O471  1  0.44992267  0.37059296  0.23930269  1
  O  O472  1  0.83962008  0.92969621  0.23436413  1
  O  O473  1  0.64652920  0.04860868  0.23518842  1
  O  O474  1  0.15459543  0.44212272  0.23793336  1
  O  O475  1  0.33205971  0.57342360  0.23881280  1
  O  O476  1  0.35289871  0.95014883  0.25041149  1
  O  O477  1  0.13775163  0.01872700  0.24795468  1
  O  O478  1  0.63241917  0.47701928  0.25092627  1
  O  O479  1  0.85756164  0.53886213  0.25305773  1
  O  O480  1  0.46872051  0.14109688  0.25493591  1
  O  O481  1  0.01661986  0.84682903  0.25309872  1
  O  O482  1  0.97121471  0.35129491  0.25537800  1
  O  O483  1  0.50941952  0.66031567  0.25567014  1
  O  O484  1  0.78110432  0.17974139  0.26141775  1
  O  O485  1  0.72175680  0.80757893  0.26134946  1
  O  O486  1  0.28379423  0.31130635  0.26315701  1
  O  O487  1  0.20628671  0.73577782  0.26194384  1
  O  O488  1  0.92870303  0.01570761  0.26877173  1
  O  O489  1  0.56138486  0.97486300  0.27204185  1
  O  O490  1  0.06412518  0.52840720  0.27238293  1
  O  O491  1  0.42766118  0.48611958  0.27286577  1
  O  O492  1  0.10082802  0.19994672  0.27727462  1
  O  O493  1  0.38752359  0.79249089  0.27995182  1
  O  O494  1  0.59667474  0.27903548  0.27720088  1
  O  O495  1  0.89249694  0.71689506  0.27792291  1
  O  O496  1  0.29494010  0.09775888  0.28163600  1
  O  O497  1  0.18566426  0.91112749  0.28313388  1
  O  O498  1  0.78149641  0.39064567  0.28302928  1
  O  O499  1  0.67778578  0.61705403  0.28380590  1
  O  O500  1  0.17997757  0.38250807  0.29249314  1
  O  O501  1  0.27267102  0.61473732  0.29268656  1
  O  O502  1  0.69669297  0.09448694  0.29303772  1
  O  O503  1  0.80284908  0.90053542  0.29433030  1
  O  O504  1  0.39808882  0.28104762  0.29754456  1
  O  O505  1  0.08327059  0.72994715  0.29906328  1
  O  O506  1  0.89522778  0.20847203  0.29692187  1
  O  O507  1  0.60036926  0.79913606  0.29772139  1
  O  O508  1  0.93285444  0.52787934  0.30325797  1
  O  O509  1  0.55339802  0.46784902  0.30468073  1
  O  O510  1  0.04376184  0.01993248  0.30630878  1
  O  O511  1  0.42643015  0.98456022  0.30564562  1
  O  O512  1  0.70668293  0.27865787  0.31392108  1
  O  O513  1  0.77991059  0.69483871  0.31373593  1
  O  O514  1  0.22214426  0.18944867  0.31495828  1
  O  O515  1  0.25517271  0.82533657  0.31576330  1
  O  O516  1  0.01362021  0.34936715  0.32183333  1
  O  O517  1  0.45953316  0.65184023  0.32293673  1
  O  O518  1  0.52296710  0.14945361  0.32399683  1
  O  O519  1  0.95627962  0.85828903  0.32807781  1
  O  O520  1  0.34829996  0.46059760  0.32362288  1
  O  O521  1  0.13893494  0.54391437  0.32462683  1
  O  O522  1  0.64039710  0.95800151  0.32679186  1
  O  O523  1  0.84148108  0.05378091  0.32763597  1
  O  O524  1  0.83935208  0.44462869  0.33687983  1
  O  O525  1  0.64919482  0.55079182  0.33597672  1
  O  O526  1  0.13940518  0.96114142  0.34066905  1
  O  O527  1  0.34158086  0.05380762  0.34010732  1
  O  O528  1  0.95222855  0.64055257  0.33999346  1
  O  O529  1  0.52163575  0.35947143  0.34108609  1
  O  O530  1  0.46605730  0.85431271  0.34095959  1
  O  O531  1  0.01956073  0.15456999  0.34188033  1
  O  O532  1  0.27397358  0.68681271  0.34707721  1
  O  O533  1  0.21127319  0.31819281  0.34931132  1
  O  O534  1  0.77145241  0.81568823  0.34835949  1
  O  O535  1  0.70208757  0.19411893  0.35096497  1
  O  O536  1  0.44097576  0.53304025  0.35791583  1
  O  O537  1  0.03484638  0.47338723  0.35701408  1
  O  O538  1  0.54154331  0.02942130  0.35903352  1
  O  O539  1  0.93671245  0.98158942  0.36081741  1
  O  O540  1  0.59058984  0.71684421  0.36564626  1
  O  O541  1  0.89532518  0.28895979  0.36854929  1
  O  O542  1  0.09186995  0.77724946  0.36535329  1
  O  O543  1  0.40083937  0.22369943  0.36708665  1
  O  O544  1  0.78425308  0.60942921  0.36849038  1
  O  O545  1  0.67879231  0.39703538  0.37030227  1
  O  O546  1  0.29660791  0.88534013  0.37176550  1
  O  O547  1  0.17716690  0.12375023  0.37137616  1
  O  O548  1  0.67760401  0.89617358  0.37980758  1
  O  O549  1  0.79015164  0.11268706  0.38198005  1
  O  O550  1  0.18603486  0.59239118  0.37870699  1
  O  O551  1  0.30217760  0.40631020  0.38175910  1
  O  O552  1  0.89188041  0.78624609  0.38323219  1
  O  O553  1  0.59443895  0.20952391  0.38698389  1
  O  O554  1  0.38503353  0.70373897  0.38493759  1
  O  O555  1  0.10322223  0.31071806  0.38533564  1
  O  O556  1  0.42543429  0.01965493  0.39252092  1
  O  O557  1  0.06264318  0.96121126  0.39162895  1
  O  O558  1  0.55870570  0.54005552  0.39322713  1
  O  O559  1  0.92572500  0.49525237  0.39205834  1
  O  O560  1  0.20246869  0.76978310  0.40062481  1
  O  O561  1  0.27552939  0.19648112  0.40059208  1
  O  O562  1  0.72268076  0.69975901  0.40162248  1
  O  O563  1  0.75968053  0.32622697  0.40188424  1
  O  O564  1  0.51687298  0.84117957  0.40958092  1
  O  O565  1  0.97619657  0.14770075  0.40973419  1
  O  O566  1  0.01596196  0.66392772  0.41428266  1
  O  O567  1  0.46705077  0.35739041  0.41227764  1
  O  O568  1  0.86505034  0.95519185  0.41110092  1
  O  O569  1  0.63411215  0.02048729  0.41360186  1
  O  O570  1  0.13348091  0.48891021  0.41394625  1
  O  O571  1  0.35064824  0.54888575  0.41384242  1
  O  O572  1  0.33914771  0.92626641  0.42648657  1
  O  O573  1  0.16064387  0.05349852  0.42320721  1
  O  O574  1  0.64321417  0.45604638  0.42677250  1
  O  O575  1  0.83472717  0.56195184  0.42741507  1
  O  O576  1  0.44772530  0.13586995  0.42490657  1
  O  O577  1  0.05455043  0.86846325  0.42961193  1
  O  O578  1  0.96870320  0.36174030  0.42280357  1
  O  O579  1  0.54076858  0.64999469  0.42743206  1
  O  O580  1  0.77995142  0.17297936  0.43006049  1
  O  O581  1  0.72472198  0.83124957  0.43376658  1
  O  O582  1  0.27191676  0.33499434  0.43176243  1
  O  O583  1  0.20990743  0.67971443  0.43724559  1
  O  O584  1  0.84758691  0.08103446  0.20377540  1
  O  O585  1  0.31821589  0.42144037  0.20754488  1
  O  O586  1  0.53211941  0.22395318  0.21540351  1
  O  O587  1  0.07680036  0.28278846  0.21239827  1
  O  O588  1  0.43805445  0.02638590  0.21883975  1
  O  O589  1  0.03926552  0.97264678  0.21437295  1
  O  O590  1  0.52324361  0.53206938  0.21753882  1
  O  O591  1  0.93061393  0.47233771  0.21964183  1
  O  O592  1  0.94374393  0.02894596  0.44401972  1
  O  O593  1  0.52374052  0.98529851  0.44739275  1
  O  O594  1  0.02222852  0.52782561  0.44768728  1
  O  O595  1  0.44682299  0.47961457  0.44640562  1
  O  O596  1  0.07424479  0.22292850  0.44894768  1
  O  O597  1  0.57309787  0.27576249  0.45088705  1
  O  O598  1  0.29191014  0.12524022  0.45485634  1
  O  O599  1  0.81670167  0.36552661  0.45522529  1
