# generated using pymatgen
data_Li40La18Zr10O67
_symmetry_space_group_name_H-M   'P 1'
_cell_length_a   11.29297700
_cell_length_b   11.29297737
_cell_length_c   40.01105500
_cell_angle_alpha   90.00000000
_cell_angle_beta   90.00000000
_cell_angle_gamma   111.54263211
_symmetry_Int_Tables_number   1
_chemical_formula_structural   Li40La18Zr10O67
_chemical_formula_sum   'Li80 La36 Zr20 O134'
_cell_volume   4746.21466431
_cell_formula_units_Z   2
loop_
 _symmetry_equiv_pos_site_id
 _symmetry_equiv_pos_as_xyz
  1  'x, y, z'
loop_
 _atom_site_type_symbol
 _atom_site_label
 _atom_site_symmetry_multiplicity
 _atom_site_fract_x
 _atom_site_fract_y
 _atom_site_fract_z
 _atom_site_occupancy
  Li  Li0  1  0.28998467  0.50627494  0.10631023  1
  Li  Li1  1  0.73706520  0.98703935  0.11181661  1
  Li  Li2  1  0.85420395  0.48079482  0.11099143  1
  Li  Li3  1  0.94602153  0.93627137  0.12537840  1
  Li  Li4  1  0.07838250  0.55144370  0.12696243  1
  Li  Li5  1  0.00294706  0.73979300  0.14351523  1
  Li  Li6  1  0.37181713  0.53000404  0.16519290  1
  Li  Li7  1  0.14165112  0.97544642  0.16551973  1
  Li  Li8  1  0.62880311  0.97163274  0.16839754  1
  Li  Li9  1  0.85683491  0.52377525  0.17085160  1
  Li  Li10  1  0.50004800  0.74370485  0.19605153  1
  Li  Li11  1  0.56388106  0.54461778  0.20263630  1
  Li  Li12  1  0.44009367  0.94698101  0.20684152  1
  Li  Li13  1  0.32889884  0.43934418  0.22176159  1
  Li  Li14  1  0.24775466  0.00096348  0.22300172  1
  Li  Li15  1  0.74921143  0.49854602  0.22536772  1
  Li  Li16  1  0.69772267  0.08740140  0.22567420  1
  Li  Li17  1  0.19193652  0.19747496  0.24124151  1
  Li  Li18  1  0.79806455  0.31352160  0.24417940  1
  Li  Li19  1  0.97831391  0.23516374  0.25834790  1
  Li  Li20  1  0.77509881  0.60767170  0.28031645  1
  Li  Li21  1  0.21913209  0.38561250  0.28288097  1
  Li  Li22  1  0.22038611  0.88739256  0.28207578  1
  Li  Li23  1  0.77325438  0.10594425  0.28652419  1
  Li  Li24  1  0.98495376  0.73757492  0.30953171  1
  Li  Li25  1  0.80270206  0.81462899  0.32214247  1
  Li  Li26  1  0.19520341  0.69578327  0.32265486  1
  Li  Li27  1  0.69413753  0.58280750  0.34053056  1
  Li  Li28  1  0.74913257  0.99860988  0.34166198  1
  Li  Li29  1  0.24905602  0.49867603  0.34126481  1
  Li  Li30  1  0.33306337  0.94358226  0.34180700  1
  Li  Li31  1  0.44487629  0.44485389  0.36014461  1
  Li  Li32  1  0.56304949  0.05135597  0.36090459  1
  Li  Li33  1  0.48622725  0.23385974  0.37403858  1
  Li  Li34  1  0.85745923  0.02408050  0.39739401  1
  Li  Li35  1  0.63686575  0.46885370  0.40019247  1
  Li  Li36  1  0.13686682  0.46885273  0.39977815  1
  Li  Li37  1  0.35746025  0.02408500  0.40258033  1
  Li  Li38  1  0.98622765  0.23385942  0.42593351  1
  Li  Li39  1  0.06305260  0.05135756  0.43907022  1
  Li  Li40  1  0.94488354  0.44485482  0.43982878  1
  Li  Li41  1  0.83306182  0.94358280  0.45816714  1
  Li  Li42  1  0.74905453  0.49867671  0.45870793  1
  Li  Li43  1  0.24913252  0.99861022  0.45831077  1
  Li  Li44  1  0.19413721  0.58280935  0.45944255  1
  Li  Li45  1  0.69520235  0.69578291  0.47731778  1
  Li  Li46  1  0.30269986  0.81462770  0.47782895  1
  Li  Li47  1  0.48495335  0.73757962  0.49043872  1
  Li  Li48  1  0.27325261  0.10594672  0.51344725  1
  Li  Li49  1  0.72038524  0.88739546  0.51789774  1
  Li  Li50  1  0.71913273  0.38561064  0.51709214  1
  Li  Li51  1  0.27509932  0.60767066  0.51965803  1
  Li  Li52  1  0.47831075  0.23516338  0.54162358  1
  Li  Li53  1  0.29806421  0.31352294  0.55579274  1
  Li  Li54  1  0.69193390  0.19747455  0.55873136  1
  Li  Li55  1  0.19772043  0.08740500  0.57429795  1
  Li  Li56  1  0.24921199  0.49854567  0.57460489  1
  Li  Li57  1  0.74775379  0.00097015  0.57696976  1
  Li  Li58  1  0.82889788  0.43935135  0.57820961  1
  Li  Li59  1  0.94009865  0.94698817  0.59313130  1
  Li  Li60  1  0.06387627  0.54461832  0.59733592  1
  Li  Li61  1  0.00005727  0.74371387  0.60391838  1
  Li  Li62  1  0.35683140  0.52376905  0.62911839  1
  Li  Li63  1  0.12880812  0.97162962  0.63157441  1
  Li  Li64  1  0.64164856  0.97544958  0.63445231  1
  Li  Li65  1  0.87181401  0.53000718  0.63477785  1
  Li  Li66  1  0.50294658  0.73978897  0.65645382  1
  Li  Li67  1  0.57838567  0.55144545  0.67300580  1
  Li  Li68  1  0.44602181  0.93626965  0.67459137  1
  Li  Li69  1  0.35420807  0.48078774  0.68897869  1
  Li  Li70  1  0.23706510  0.98703824  0.68815523  1
  Li  Li71  1  0.78998360  0.50627334  0.69366063  1
  La  La72  1  0.83038692  0.69413465  0.08226444  1
  La  La73  1  0.18148059  0.80166792  0.08323391  1
  La  La74  1  0.50698244  0.75471487  0.11503295  1
  La  La75  1  0.97978147  0.24962905  0.11210184  1
  La  La76  1  0.56864529  0.43698910  0.12411105  1
  La  La77  1  0.42872614  0.05684259  0.13223273  1
  La  La78  1  0.93792493  0.06313703  0.19540780  1
  La  La79  1  0.05937535  0.43128710  0.19773067  1
  La  La80  1  0.00197302  0.74946488  0.22596667  1
  La  La81  1  0.49359836  0.24928103  0.22183431  1
  La  La82  1  0.68628461  0.81568403  0.25345847  1
  La  La83  1  0.31267078  0.68185130  0.25470397  1
  La  La84  1  0.31178983  0.18647826  0.31173164  1
  La  La85  1  0.68226056  0.31270050  0.31331886  1
  La  La86  1  0.99872128  0.24937653  0.34187758  1
  La  La87  1  0.49915290  0.74858774  0.34141658  1
  La  La88  1  0.06464235  0.93450691  0.36961421  1
  La  La89  1  0.93555760  0.56137886  0.37092601  1
  La  La90  1  0.43555801  0.56137989  0.42904701  1
  La  La91  1  0.56464456  0.93450772  0.43035800  1
  La  La92  1  0.49872152  0.24937873  0.45809394  1
  La  La93  1  0.99914905  0.74859010  0.45855511  1
  La  La94  1  0.18225872  0.31270316  0.48665302  1
  La  La95  1  0.81179177  0.18647729  0.48824192  1
  La  La96  1  0.81266997  0.68185330  0.54526749  1
  La  La97  1  0.18628844  0.81568704  0.54651197  1
  La  La98  1  0.50197481  0.74946879  0.57400421  1
  La  La99  1  0.99359547  0.24928435  0.57813868  1
  La  La100  1  0.55937401  0.43128977  0.60224065  1
  La  La101  1  0.43792667  0.06313887  0.60456372  1
  La  La102  1  0.92872462  0.05684003  0.66774009  1
  La  La103  1  0.06864627  0.43699020  0.67586266  1
  La  La104  1  0.00698402  0.75471209  0.68493850  1
  La  La105  1  0.47978574  0.24962434  0.68786684  1
  La  La106  1  0.68148459  0.80166809  0.71673586  1
  La  La107  1  0.33039653  0.69413498  0.71770492  1
  Zr  Zr108  1  0.75615185  0.74952532  0.16761924  1
  Zr  Zr109  1  0.25302346  0.25374447  0.15968102  1
  Zr  Zr110  1  0.73912237  0.24886578  0.16618349  1
  Zr  Zr111  1  0.24987960  0.74331974  0.16897103  1
  Zr  Zr112  1  0.00089854  0.00073149  0.28287120  1
  Zr  Zr113  1  0.49956673  0.49835456  0.28187122  1
  Zr  Zr114  1  0.49912427  0.99937858  0.28238681  1
  Zr  Zr115  1  0.99771740  0.49797212  0.28400995  1
  Zr  Zr116  1  0.24861649  0.24872940  0.39962204  1
  Zr  Zr117  1  0.74959124  0.74867669  0.39998641  1
  Zr  Zr118  1  0.24959132  0.74867751  0.39998632  1
  Zr  Zr119  1  0.74861915  0.24873006  0.40035155  1
  Zr  Zr120  1  0.49771859  0.49797369  0.51596222  1
  Zr  Zr121  1  0.99912533  0.99937911  0.51758691  1
  Zr  Zr122  1  0.99956865  0.49835828  0.51810120  1
  Zr  Zr123  1  0.50090021  0.00073458  0.51710104  1
  Zr  Zr124  1  0.74988424  0.74332614  0.63099826  1
  Zr  Zr125  1  0.23911776  0.24886253  0.63378800  1
  Zr  Zr126  1  0.75302736  0.25374947  0.64029011  1
  Zr  Zr127  1  0.25615229  0.74952130  0.63235099  1
  O  O128  1  0.75056522  0.82893322  0.11792385  1
  O  O129  1  0.26955816  0.66768158  0.11896782  1
  O  O130  1  0.36915341  0.25394612  0.11883599  1
  O  O131  1  0.62328538  0.24228033  0.12528766  1
  O  O132  1  0.20080806  0.87143303  0.13881918  1
  O  O133  1  0.80104238  0.61487317  0.13844603  1
  O  O134  1  0.08601707  0.10488553  0.13804616  1
  O  O135  1  0.18203698  0.39083476  0.13840085  1
  O  O136  1  0.81571056  0.11132556  0.14526236  1
  O  O137  1  0.91032637  0.39051831  0.14539448  1
  O  O138  1  0.55888194  0.64681735  0.16302268  1
  O  O139  1  0.44497321  0.85291172  0.16538741  1
  O  O140  1  0.95437695  0.86188611  0.17163685  1
  O  O141  1  0.05197658  0.63172165  0.17362582  1
  O  O142  1  0.41200373  0.38942133  0.18417000  1
  O  O143  1  0.30858522  0.11248383  0.18358369  1
  O  O144  1  0.68529299  0.38609816  0.18865271  1
  O  O145  1  0.58301915  0.10714503  0.18935871  1
  O  O146  1  0.28471788  0.59736792  0.19618987  1
  O  O147  1  0.71894840  0.89349979  0.19536180  1
  O  O148  1  0.13084262  0.25487864  0.20215782  1
  O  O149  1  0.86067909  0.23831897  0.20854727  1
  O  O150  1  0.76766218  0.66840132  0.21388926  1
  O  O151  1  0.23668773  0.82693781  0.21496217  1
  O  O152  1  0.08059464  0.98941457  0.23573049  1
  O  O153  1  0.91616240  0.50914724  0.23687463  1
  O  O154  1  0.49357725  0.61201818  0.23989762  1
  O  O155  1  0.50411303  0.87623548  0.24238814  1
  O  O156  1  0.13894074  0.46406314  0.25460882  1
  O  O157  1  0.85767712  0.03890916  0.25435659  1
  O  O158  1  0.35399894  0.33625687  0.25994438  1
  O  O159  1  0.63481524  0.43059615  0.26120919  1
  O  O160  1  0.36643937  0.06624453  0.25935565  1
  O  O161  1  0.64376958  0.16311001  0.26337301  1
  O  O162  1  0.89051765  0.80214472  0.27804246  1
  O  O163  1  0.10586911  0.69764812  0.27904668  1
  O  O164  1  0.10626207  0.19972480  0.28688414  1
  O  O165  1  0.88736400  0.30049914  0.28939381  1
  O  O166  1  0.64207524  0.66361025  0.30307168  1
  O  O167  1  0.36385356  0.56611193  0.30399274  1
  O  O168  1  0.63589781  0.93197945  0.30465677  1
  O  O169  1  0.35543770  0.83540467  0.30461165  1
  O  O170  1  0.85545096  0.53773908  0.31230700  1
  O  O171  1  0.14479084  0.96913524  0.31181023  1
  O  O172  1  0.50244349  0.37875024  0.32314883  1
  O  O173  1  0.48751100  0.11049229  0.32489959  1
  O  O174  1  0.91843855  0.01127004  0.33025950  1
  O  O175  1  0.07803429  0.48650288  0.33129298  1
  O  O176  1  0.23543145  0.32787042  0.35216503  1
  O  O177  1  0.75953169  0.16609495  0.35319771  1
  O  O178  1  0.86272098  0.73996098  0.35771559  1
  O  O179  1  0.12964423  0.75453063  0.35938364  1
  O  O180  1  0.71746273  0.39198367  0.37106005  1
  O  O181  1  0.28764570  0.10661095  0.37091568  1
  O  O182  1  0.58670331  0.60504714  0.37806473  1
  O  O183  1  0.68313134  0.88479074  0.37820553  1
  O  O184  1  0.31756010  0.61403979  0.37814998  1
  O  O185  1  0.41459607  0.89173051  0.37945610  1
  O  O186  1  0.05054610  0.13842230  0.39473330  1
  O  O187  1  0.94820077  0.35585344  0.39582125  1
  O  O188  1  0.44819903  0.35585530  0.40415248  1
  O  O189  1  0.55054740  0.13842528  0.40524002  1
  O  O190  1  0.91459388  0.89172751  0.42051767  1
  O  O191  1  0.81755841  0.61403875  0.42182189  1
  O  O192  1  0.18312608  0.88479051  0.42176654  1
  O  O193  1  0.08670458  0.60504743  0.42190727  1
  O  O194  1  0.78764558  0.10660974  0.42905815  1
  O  O195  1  0.21746031  0.39198481  0.42891235  1
  O  O196  1  0.62964487  0.75453220  0.44058845  1
  O  O197  1  0.36272194  0.73996248  0.44225618  1
  O  O198  1  0.25952544  0.16609425  0.44677588  1
  O  O199  1  0.73542863  0.32786973  0.44780799  1
  O  O200  1  0.57803832  0.48651077  0.46867974  1
  O  O201  1  0.41844041  0.01127451  0.46971148  1
  O  O202  1  0.98751220  0.11049194  0.47507375  1
  O  O203  1  0.00244166  0.37874920  0.47682476  1
  O  O204  1  0.64479245  0.96913464  0.48816201  1
  O  O205  1  0.35544964  0.53773835  0.48766583  1
  O  O206  1  0.85543560  0.83540283  0.49536191  1
  O  O207  1  0.13589509  0.93197789  0.49531513  1
  O  O208  1  0.86385464  0.56611342  0.49597895  1
  O  O209  1  0.14207701  0.66361218  0.49690035  1
  O  O210  1  0.38736392  0.30050107  0.51057698  1
  O  O211  1  0.60626390  0.19972819  0.51308726  1
  O  O212  1  0.60586836  0.69764898  0.52092673  1
  O  O213  1  0.39052069  0.80214833  0.52192834  1
  O  O214  1  0.14376989  0.16311251  0.53659906  1
  O  O215  1  0.86643980  0.06624748  0.54061622  1
  O  O216  1  0.13481754  0.43060361  0.53876315  1
  O  O217  1  0.85400141  0.33625830  0.54002874  1
  O  O218  1  0.35767969  0.03891014  0.54561436  1
  O  O219  1  0.63894219  0.46406426  0.54536314  1
  O  O220  1  0.00411626  0.87623791  0.55758514  1
  O  O221  1  0.99357891  0.61202251  0.56007457  1
  O  O222  1  0.41616427  0.50914596  0.56309831  1
  O  O223  1  0.58059680  0.98941698  0.56424079  1
  O  O224  1  0.73669309  0.82694612  0.58500828  1
  O  O225  1  0.26766426  0.66840125  0.58608081  1
  O  O226  1  0.36067759  0.23831595  0.59142380  1
  O  O227  1  0.63083934  0.25487715  0.59781428  1
  O  O228  1  0.21894795  0.89349354  0.60460921  1
  O  O229  1  0.78471897  0.59737265  0.60378060  1
  O  O230  1  0.08302205  0.10714302  0.61061367  1
  O  O231  1  0.18529115  0.38609572  0.61131913  1
  O  O232  1  0.80858551  0.11249061  0.61638643  1
  O  O233  1  0.91200273  0.38942521  0.61580244  1
  O  O234  1  0.55198024  0.63172627  0.62634466  1
  O  O235  1  0.45437917  0.86188135  0.62833297  1
  O  O236  1  0.94497780  0.85291478  0.63458492  1
  O  O237  1  0.05888311  0.64681637  0.63694947  1
  O  O238  1  0.41032668  0.39051782  0.65457508  1
  O  O239  1  0.31570606  0.11132099  0.65470861  1
  O  O240  1  0.68203732  0.39084042  0.66156807  1
  O  O241  1  0.58601268  0.10488340  0.66192351  1
  O  O242  1  0.30104496  0.61486899  0.66152464  1
  O  O243  1  0.70081680  0.87144215  0.66115136  1
  O  O244  1  0.12328396  0.24227919  0.67468409  1
  O  O245  1  0.86915107  0.25394190  0.68113574  1
  O  O246  1  0.76956431  0.66768443  0.68100073  1
  O  O247  1  0.25056653  0.82893261  0.68204574  1
  O  O248  1  0.06921346  0.97422460  0.69607317  1
  O  O249  1  0.96474841  0.55104101  0.70307662  1
  O  O250  1  0.49959174  0.62184623  0.70737276  1
  O  O251  1  0.51457079  0.87524091  0.71263611  1
  O  O252  1  0.21840886  0.47773654  0.72172190  1
  O  O253  1  0.80386095  0.01944350  0.71901227  1
  O  O254  1  0.34168907  0.24010167  0.72653796  1
  O  O255  1  0.84168913  0.24010501  0.07342992  1
  O  O256  1  0.30386150  0.01944254  0.08096041  1
  O  O257  1  0.71840364  0.47773639  0.07824988  1
  O  O258  1  0.01456447  0.87523854  0.08733345  1
  O  O259  1  0.99958532  0.62184772  0.09259661  1
  O  O260  1  0.46475269  0.55104713  0.09689641  1
  O  O261  1  0.56921415  0.97422702  0.10390053  1
  Li  Li262  1  0.65089306  0.02813786  0.69803736  1
  Li  Li263  1  0.17684208  0.15028501  0.70805769  1
  Li  Li264  1  0.85463261  0.19031088  0.72390419  1
  Li  Li265  1  0.27965935  0.36164107  0.74048279  1
  Li  Li266  1  0.77965215  0.36164147  0.05948723  1
  Li  Li267  1  0.35462635  0.19030895  0.07606811  1
  Li  Li268  1  0.67684264  0.15028571  0.09191359  1
  Li  Li269  1  0.15089100  0.02813077  0.10193381  1
