# generated using pymatgen
data_Li7La3Zr2O12
_symmetry_space_group_name_H-M   'P 1'
_cell_length_a   13.20454200
_cell_length_b   21.22125973
_cell_length_c   28.63594200
_cell_angle_alpha   90.00000000
_cell_angle_beta   90.00000000
_cell_angle_gamma   108.12648040
_symmetry_Int_Tables_number   1
_chemical_formula_structural   Li7La3Zr2O12
_chemical_formula_sum   'Li112 La48 Zr32 O192'
_cell_volume   7626.04968023
_cell_formula_units_Z   16
loop_
 _symmetry_equiv_pos_site_id
 _symmetry_equiv_pos_as_xyz
  1  'x, y, z'
loop_
 _atom_site_type_symbol
 _atom_site_label
 _atom_site_symmetry_multiplicity
 _atom_site_fract_x
 _atom_site_fract_y
 _atom_site_fract_z
 _atom_site_occupancy
  Li  Li0  1  0.65042475  0.11608735  0.08336940  1
  Li  Li1  1  0.45846208  0.47540017  0.08200722  1
  Li  Li2  1  0.74371052  0.54526990  0.03911819  1
  Li  Li3  1  0.33121121  0.81296411  0.08401681  1
  Li  Li4  1  0.72228031  0.28005330  0.10040489  1
  Li  Li5  1  0.56980815  0.62092658  0.08365539  1
  Li  Li6  1  0.23302995  0.09892302  0.09556355  1
  Li  Li7  1  0.61775706  0.53249312  0.11270649  1
  Li  Li8  1  0.19099180  0.70430139  0.10763201  1
  Li  Li9  1  0.51849971  0.20805292  0.11451732  1
  Li  Li10  1  0.69719089  0.04441055  0.13496712  1
  Li  Li11  1  0.08246648  0.98360504  0.11818590  1
  Li  Li12  1  0.94948811  0.33750294  0.08142386  1
  Li  Li13  1  0.75126380  0.69196871  0.07809604  1
  Li  Li14  1  0.91337618  0.86330583  0.08635995  1
  Li  Li15  1  0.34276023  0.18685533  0.15779309  1
  Li  Li16  1  0.79432231  0.58700263  0.11897005  1
  Li  Li17  1  0.39838674  0.47804666  0.17118281  1
  Li  Li18  1  0.05440511  0.29229687  0.16542420  1
  Li  Li19  1  0.23606478  0.80132556  0.16645951  1
  Li  Li20  1  0.90918391  0.96475987  0.16875626  1
  Li  Li21  1  0.86124929  0.38071496  0.16074587  1
  Li  Li22  1  0.75344237  0.75593958  0.14930115  1
  Li  Li23  1  0.21167171  0.23345317  0.18623596  1
  Li  Li24  1  0.27491675  0.69169096  0.19472957  1
  Li  Li25  1  0.03744687  0.90341128  0.18451533  1
  Li  Li26  1  0.78019229  0.03150543  0.19777598  1
  Li  Li27  1  0.23557366  0.35992253  0.20347740  1
  Li  Li28  1  0.35295574  0.56149935  0.22896963  1
  Li  Li29  1  0.19481363  0.88587540  0.22988395  1
  Li  Li30  1  0.59318721  0.00816058  0.23958351  1
  Li  Li31  1  0.03897148  0.20883600  0.23922178  1
  Li  Li32  1  0.42934111  0.68243641  0.24792971  1
  Li  Li33  1  0.42446989  0.17521293  0.23683215  1
  Li  Li34  1  0.86418755  0.47578888  0.21283801  1
  Li  Li35  1  0.39140023  0.94544095  0.25435800  1
  Li  Li36  1  0.88527799  0.10900873  0.25823388  1
  Li  Li37  1  0.21568159  0.61381591  0.26387129  1
  Li  Li38  1  0.38657179  0.44518185  0.25854310  1
  Li  Li39  1  0.76817965  0.39087631  0.26904140  1
  Li  Li40  1  0.62490275  0.73466404  0.26660527  1
  Li  Li41  1  0.47092346  0.07143841  0.27338934  1
  Li  Li42  1  0.55124696  0.24611886  0.30245986  1
  Li  Li43  1  0.03408044  0.58510781  0.30179971  1
  Li  Li44  1  0.52990384  0.91932597  0.31235909  1
  Li  Li45  1  0.11782139  0.88104064  0.30984094  1
  Li  Li46  1  0.77508618  0.71243594  0.31636226  1
  Li  Li47  1  0.94242806  0.21439916  0.31571248  1
  Li  Li48  1  0.60420482  0.38004535  0.31708305  1
  Li  Li49  1  0.57361368  0.81044084  0.33162304  1
  Li  Li50  1  0.40268633  0.14643193  0.33512178  1
  Li  Li51  1  0.90784142  0.65211574  0.33170843  1
  Li  Li52  1  0.98159277  0.09684657  0.33628189  1
  Li  Li53  1  0.74301530  0.31289503  0.33504314  1
  Li  Li54  1  0.47231256  0.43883771  0.34314159  1
  Li  Li55  1  0.96858519  0.78747108  0.34549614  1
  Li  Li56  1  0.04706921  0.94090600  0.37451608  1
  Li  Li57  1  0.89719762  0.28966467  0.37636790  1
  Li  Li58  1  0.30184603  0.41681328  0.38633309  1
  Li  Li59  1  0.74028524  0.61931200  0.38915453  1
  Li  Li60  1  0.12689686  0.07775644  0.38832360  1
  Li  Li61  1  0.12485603  0.58132581  0.38347448  1
  Li  Li62  1  0.62621244  0.91716445  0.39166626  1
  Li  Li63  1  0.08516993  0.34498612  0.40211347  1
  Li  Li64  1  0.58535812  0.51349689  0.40581284  1
  Li  Li65  1  0.92758720  0.01483155  0.40543233  1
  Li  Li66  1  0.10474102  0.84814474  0.40701001  1
  Li  Li67  1  0.46359397  0.79395920  0.41477187  1
  Li  Li68  1  0.31675356  0.14401373  0.41819713  1
  Li  Li69  1  0.16656786  0.46718954  0.42091810  1
  Li  Li70  1  0.27002979  0.66843730  0.44567117  1
  Li  Li71  1  0.75559975  0.99476700  0.45353513  1
  Li  Li72  1  0.24026777  0.33896137  0.45208102  1
  Li  Li73  1  0.80839261  0.28344002  0.45896913  1
  Li  Li74  1  0.46938731  0.11423268  0.45990449  1
  Li  Li75  1  0.64983619  0.62676649  0.47025668  1
  Li  Li76  1  0.29352077  0.79194156  0.46322162  1
  Li  Li77  1  0.25141695  0.25107425  0.50717612  1
  Li  Li78  1  0.11746359  0.55402444  0.47280269  1
  Li  Li79  1  0.61047000  0.04734877  0.47174979  1
  Li  Li80  1  0.69412187  0.52005091  0.48065124  1
  Li  Li81  1  0.44763696  0.71806024  0.48508695  1
  Li  Li82  1  0.16059664  0.84485024  0.49021799  1
  Li  Li83  1  0.65764470  0.16752083  0.49124271  1
  Li  Li84  1  0.73980354  0.35407086  0.51993319  1
  Li  Li85  1  0.61087764  0.70223904  0.52346378  1
  Li  Li86  1  0.92214827  0.80543816  0.55282091  1
  Li  Li87  1  0.44306719  0.02601052  0.53067697  1
  Li  Li88  1  0.84485152  0.49164361  0.53298225  1
  Li  Li89  1  0.85915747  0.96912121  0.56994194  1
  Li  Li90  1  0.34548949  0.34056775  0.55794598  1
  Li  Li91  1  0.70215064  0.67865388  0.61965920  1
  Li  Li92  1  0.28619391  0.92387523  0.54785679  1
  Li  Li93  1  0.64395925  0.43263679  0.55393709  1
  Li  Li94  1  0.78382456  0.25214526  0.54919021  1
  Li  Li95  1  0.06923062  0.14140093  0.60151726  1
  Li  Li96  1  0.03550746  0.54106244  0.56323072  1
  Li  Li97  1  0.90257212  0.85961041  0.63660170  1
  Li  Li98  1  0.81043220  0.10842510  0.63652292  1
  Li  Li99  1  0.47722530  0.36958647  0.64371873  1
  Li  Li100  1  0.94718371  0.72516263  0.61063789  1
  Li  Li101  1  0.51477998  0.68629908  0.59224303  1
  Li  Li102  1  0.19007507  0.51263803  0.61288729  1
  Li  Li103  1  0.34978451  0.02738521  0.61139835  1
  Li  Li104  1  0.94948730  0.19784467  0.60885923  1
  Li  Li105  1  0.98477248  0.61250856  0.61028673  1
  Li  Li106  1  0.91666437  0.03478001  0.63921908  1
  Li  Li107  1  0.33271434  0.44072779  0.60906425  1
  Li  Li108  1  0.40888818  0.93162653  0.61985184  1
  Li  Li109  1  0.05691462  0.18026608  0.68224833  1
  Li  Li110  1  0.84374607  0.25680154  0.63841562  1
  Li  Li111  1  0.41261249  0.60053567  0.63642295  1
  La  La112  1  0.90080162  0.05233510  0.07727287  1
  La  La113  1  0.12363557  0.22275459  0.09102049  1
  La  La114  1  0.97748620  0.49435569  0.08831146  1
  La  La115  1  0.41712251  0.33257846  0.12460361  1
  La  La116  1  0.29491606  0.59168269  0.12724733  1
  La  La117  1  0.99188632  0.76307655  0.13745898  1
  La  La118  1  0.49968139  0.75444842  0.14777027  1
  La  La119  1  0.46875799  0.93334779  0.14592868  1
  La  La120  1  0.84237682  0.18725769  0.15386898  1
  La  La121  1  0.27786190  0.03537688  0.19223361  1
  La  La122  1  0.63962423  0.28376187  0.19949198  1
  La  La123  1  0.10309772  0.46768874  0.22175103  1
  La  La124  1  0.60928200  0.46442034  0.21950358  1
  La  La125  1  0.82092984  0.63401061  0.22785088  1
  La  La126  1  0.69353924  0.88231087  0.23748256  1
  La  La127  1  0.11813887  0.73762304  0.26722008  1
  La  La128  1  0.99713220  0.98334728  0.27098537  1
  La  La129  1  0.70693080  0.16411672  0.28667308  1
  La  La130  1  0.20824848  0.16128490  0.28749845  1
  La  La131  1  0.16773622  0.33648394  0.30409743  1
  La  La132  1  0.54673470  0.58801452  0.30793632  1
  La  La133  1  0.96813724  0.43893435  0.34231254  1
  La  La134  1  0.34764730  0.69106021  0.34317364  1
  La  La135  1  0.81229740  0.86492518  0.36032981  1
  La  La136  1  0.31257637  0.86492208  0.35856285  1
  La  La137  1  0.51924541  0.03990882  0.37545844  1
  La  La138  1  0.39382295  0.29027056  0.37917880  1
  La  La139  1  0.82327375  0.14121058  0.41263775  1
  La  La140  1  0.69259862  0.39349100  0.41763528  1
  La  La141  1  0.40664564  0.56721917  0.43441351  1
  La  La142  1  0.91117995  0.56699216  0.43123764  1
  La  La143  1  0.87650107  0.74513850  0.45067426  1
  La  La144  1  0.24573486  0.99281715  0.45071477  1
  La  La145  1  0.68481719  0.84650577  0.48319376  1
  La  La146  1  0.05038209  0.09536307  0.49148837  1
  La  La147  1  0.50129877  0.26334005  0.50083318  1
  La  La148  1  0.00990233  0.26524040  0.50078590  1
  La  La149  1  0.21846826  0.44278615  0.52296131  1
  La  La150  1  0.09601421  0.69532639  0.51977716  1
  La  La151  1  0.53432380  0.55339632  0.56237574  1
  La  La152  1  0.40218730  0.80199197  0.56495571  1
  La  La153  1  0.08955718  0.96844794  0.58025775  1
  La  La154  1  0.61702873  0.97474720  0.56965531  1
  La  La155  1  0.56602051  0.13939415  0.59259837  1
  La  La156  1  0.94391322  0.39698051  0.59655787  1
  La  La157  1  0.34093579  0.22673185  0.63345057  1
  La  La158  1  0.77742853  0.50877840  0.62901696  1
  La  La159  1  0.22067402  0.68151443  0.64681642  1
  Zr  Zr160  1  0.70175940  0.40862399  0.10840473  1
  Zr  Zr161  1  0.21586686  0.90711759  0.10733391  1
  Zr  Zr162  1  0.69925164  0.89270496  0.11515693  1
  Zr  Zr163  1  0.20521526  0.40484537  0.10541931  1
  Zr  Zr164  1  0.55597762  0.10745679  0.17256196  1
  Zr  Zr165  1  0.56010657  0.61177981  0.18072747  1
  Zr  Zr166  1  0.05235361  0.61206476  0.17559888  1
  Zr  Zr167  1  0.05990539  0.10063518  0.17875744  1
  Zr  Zr168  1  0.40528685  0.81380789  0.24965530  1
  Zr  Zr169  1  0.90801735  0.31176819  0.24833201  1
  Zr  Zr170  1  0.40562237  0.31245389  0.25057942  1
  Zr  Zr171  1  0.90314393  0.80958171  0.24894224  1
  Zr  Zr172  1  0.25972849  0.51326109  0.32579365  1
  Zr  Zr173  1  0.26046311  0.01404633  0.32200141  1
  Zr  Zr174  1  0.75669863  0.01377288  0.32416422  1
  Zr  Zr175  1  0.76042890  0.51453665  0.32457220  1
  Zr  Zr176  1  0.11214189  0.21334734  0.39540126  1
  Zr  Zr177  1  0.60910511  0.71566817  0.39720516  1
  Zr  Zr178  1  0.11035724  0.71442207  0.39420385  1
  Zr  Zr179  1  0.60886180  0.21633787  0.39601571  1
  Zr  Zr180  1  0.96366095  0.91888708  0.47052994  1
  Zr  Zr181  1  0.95801252  0.41623644  0.46933679  1
  Zr  Zr182  1  0.45929902  0.41851877  0.47498617  1
  Zr  Zr183  1  0.45446484  0.91653098  0.46813005  1
  Zr  Zr184  1  0.82006306  0.62743464  0.54225080  1
  Zr  Zr185  1  0.30427001  0.11630347  0.54366906  1
  Zr  Zr186  1  0.81405202  0.11880518  0.53954233  1
  Zr  Zr187  1  0.31090368  0.61640030  0.54855400  1
  Zr  Zr188  1  0.66368975  0.33419791  0.61810472  1
  Zr  Zr189  1  0.66131971  0.82976473  0.60541784  1
  Zr  Zr190  1  0.16488872  0.82317389  0.60954635  1
  Zr  Zr191  1  0.15857143  0.31826778  0.61259422  1
  O  O192  1  0.69212891  0.60088398  0.06830985  1
  O  O193  1  0.33552972  0.40640061  0.07212383  1
  O  O194  1  0.78714541  0.10584534  0.08763247  1
  O  O195  1  0.82933615  0.37127243  0.09346047  1
  O  O196  1  0.35962590  0.90794676  0.08295949  1
  O  O197  1  0.85486083  0.77042420  0.09517124  1
  O  O198  1  0.97710921  0.25835357  0.09997409  1
  O  O199  1  0.80131801  0.49716761  0.07882845  1
  O  O200  1  0.29829848  0.22727004  0.10391332  1
  O  O201  1  0.54794238  0.85575851  0.09713217  1
  O  O202  1  0.17827619  0.80014291  0.10335977  1
  O  O203  1  0.08179387  0.10466634  0.09821076  1
  O  O204  1  0.33660844  0.69934018  0.10844072  1
  O  O205  1  0.22844049  0.00903895  0.10915292  1
  O  O206  1  0.11195546  0.59620901  0.10642559  1
  O  O207  1  0.84859686  0.93799166  0.08598905  1
  O  O208  1  0.59504803  0.30958258  0.11064640  1
  O  O209  1  0.47051005  0.55134858  0.12146133  1
  O  O210  1  0.56016467  0.04326696  0.11948047  1
  O  O211  1  0.56398924  0.43693654  0.10927629  1
  O  O212  1  0.04793452  0.88769072  0.11756933  1
  O  O213  1  0.61430494  0.68711561  0.13196657  1
  O  O214  1  0.07435505  0.41845190  0.07595082  1
  O  O215  1  0.65474108  0.19030210  0.12844657  1
  O  O216  1  0.19942766  0.32142225  0.14034092  1
  O  O217  1  0.42149019  0.12906549  0.15268068  1
  O  O218  1  0.69429677  0.82632745  0.16210403  1
  O  O219  1  0.92130345  0.63517771  0.15224036  1
  O  O220  1  0.89958582  0.05731254  0.15654699  1
  O  O221  1  0.24537239  0.46987737  0.15725041  1
  O  O222  1  0.68198486  0.95770064  0.16148925  1
  O  O223  1  0.05711149  0.19919679  0.17025464  1
  O  O224  1  0.68048024  0.56494007  0.17304074  1
  O  O225  1  0.27189701  0.91775444  0.17282983  1
  O  O226  1  0.97805431  0.49819863  0.16739233  1
  O  O227  1  0.38185393  0.81263120  0.17736761  1
  O  O228  1  0.73302758  0.40964951  0.17693750  1
  O  O229  1  0.14442753  0.70980740  0.17878599  1
  O  O230  1  0.41966815  0.64242386  0.18762799  1
  O  O231  1  0.83256124  0.29242959  0.18115797  1
  O  O232  1  0.06705896  0.00410940  0.18361178  1
  O  O233  1  0.43686972  0.26160506  0.19100011  1
  O  O234  1  0.84735611  0.74099809  0.19677649  1
  O  O235  1  0.19464380  0.58505233  0.19914592  1
  O  O236  1  0.22198327  0.13858162  0.19506559  1
  O  O237  1  0.40469604  0.38998711  0.20086833  1
  O  O238  1  0.70836420  0.09885431  0.19750204  1
  O  O239  1  0.89395879  0.89702659  0.21631309  1
  O  O240  1  0.46132840  0.02573479  0.21178561  1
  O  O241  1  0.05665755  0.82239360  0.21902805  1
  O  O242  1  0.47707890  0.52765216  0.22655223  1
  O  O243  1  0.53201993  0.77577187  0.23532647  1
  O  O244  1  0.06714094  0.34382188  0.22244912  1
  O  O245  1  0.57208823  0.17571379  0.23308324  1
  O  O246  1  0.63565375  0.65231317  0.24241958  1
  O  O247  1  0.51579660  0.91033222  0.24407688  1
  O  O248  1  0.00608512  0.62397392  0.24419044  1
  O  O249  1  0.23606767  0.27576584  0.24444365  1
  O  O250  1  0.89275891  0.20820306  0.24779850  1
  O  O251  1  0.78059961  0.51159497  0.25220773  1
  O  O252  1  0.02734487  0.10701297  0.24880796  1
  O  O253  1  0.92042781  0.41396901  0.25229024  1
  O  O254  1  0.80296953  0.00175656  0.25546506  1
  O  O255  1  0.57728905  0.35160306  0.25375014  1
  O  O256  1  0.29983512  0.71335297  0.25971154  1
  O  O257  1  0.18011558  0.96155967  0.26345016  1
  O  O258  1  0.24847714  0.44933281  0.26653333  1
  O  O259  1  0.27298405  0.84489459  0.26960169  1
  O  O260  1  0.74461857  0.28887762  0.27106324  1
  O  O261  1  0.33712805  0.09441604  0.27627818  1
  O  O262  1  0.75508394  0.80358977  0.28263411  1
  O  O263  1  0.35420786  0.59862393  0.28950303  1
  O  O264  1  0.92308504  0.72882354  0.28931707  1
  O  O265  1  0.11512445  0.52315250  0.29732733  1
  O  O266  1  0.40013036  0.23263016  0.29560533  1
  O  O267  1  0.62310526  0.04483808  0.30196497  1
  O  O268  1  0.59511839  0.48058395  0.30627927  1
  O  O269  1  0.96960318  0.87497678  0.30987771  1
  O  O270  1  0.37921468  0.36478131  0.30958915  1
  O  O271  1  0.75405520  0.61218010  0.31936884  1
  O  O272  1  0.39353337  0.97758819  0.31718409  1
  O  O273  1  0.97112122  0.32157909  0.31752670  1
  O  O274  1  0.67124176  0.91048133  0.32391762  1
  O  O275  1  0.08532932  0.21557666  0.32050432  1
  O  O276  1  0.43263822  0.81275879  0.32424048  1
  O  O277  1  0.84614609  0.11774380  0.32532209  1
  O  O278  1  0.13017452  0.05439176  0.32478185  1
  O  O279  1  0.54609932  0.70433695  0.32785777  1
  O  O280  1  0.76399022  0.41383093  0.33411480  1
  O  O281  1  0.13860769  0.66172804  0.33550387  1
  O  O282  1  0.55031846  0.15618350  0.33638383  1
  O  O283  1  0.89680352  0.98948440  0.34216113  1
  O  O284  1  0.92263980  0.54435256  0.34590107  1
  O  O285  1  0.11911819  0.79498981  0.34916075  1
  O  O286  1  0.40042749  0.50312822  0.35531062  1
  O  O287  1  0.59241499  0.30085781  0.35931523  1
  O  O288  1  0.16007449  0.42699547  0.36072216  1
  O  O289  1  0.76017345  0.22646832  0.36642852  1
  O  O290  1  0.18837735  0.93379164  0.36823316  1
  O  O291  1  0.24442187  0.18404700  0.37443213  1
  O  O292  1  0.77256181  0.74407842  0.37836397  1
  O  O293  1  0.26486579  0.57630116  0.38407874  1
  O  O294  1  0.33964288  0.06724802  0.38256934  1
  O  O295  1  0.21694415  0.31468981  0.38696821  1
  O  O296  1  0.70694576  0.02603916  0.39332944  1
  O  O297  1  0.94327637  0.67705660  0.39387943  1
  O  O298  1  0.58865019  0.61179900  0.39642393  1
  O  O299  1  0.48389335  0.92023506  0.39506617  1
  O  O300  1  0.72900592  0.51418822  0.39882835  1
  O  O301  1  0.62141783  0.81853653  0.39926920  1
  O  O302  1  0.50860542  0.40708201  0.40392652  1
  O  O303  1  0.28153692  0.75221208  0.40220845  1
  O  O304  1  0.00889725  0.11607914  0.40246772  1
  O  O305  1  0.88166193  0.36429657  0.40997190  1
  O  O306  1  0.96396963  0.85452770  0.41032029  1
  O  O307  1  0.97994274  0.24785146  0.41274331  1
  O  O308  1  0.44329313  0.68942670  0.42024432  1
  O  O309  1  0.03748154  0.49544289  0.42309095  1
  O  O310  1  0.45637556  0.20774948  0.42520371  1
  O  O311  1  0.06116357  0.00046755  0.42970370  1
  O  O312  1  0.61795893  0.13052738  0.43119730  1
  O  O313  1  0.81965913  0.92708544  0.43688396  1
  O  O314  1  0.10904892  0.63582170  0.44237800  1
  O  O315  1  0.31963564  0.44316683  0.45073751  1
  O  O316  1  0.28991889  0.88508360  0.45023712  1
  O  O317  1  0.66552311  0.28160149  0.45406846  1
  O  O318  1  0.08946022  0.76750183  0.45485501  1
  O  O319  1  0.45040685  0.01610313  0.46196313  1
  O  O320  1  0.09403514  0.37883977  0.46451569  1
  O  O321  1  0.66773201  0.72860733  0.46517879  1
  O  O322  1  0.36942937  0.31674127  0.47140884  1
  O  O323  1  0.79152585  0.61906792  0.46750594  1
  O  O324  1  0.13318407  0.21652831  0.46771817  1
  O  O325  1  0.54685194  0.52254433  0.47343195  1
  O  O326  1  0.83053004  0.45710285  0.47190096  1
  O  O327  1  0.24725088  0.10474475  0.47520817  1
  O  O328  1  0.45487188  0.81740634  0.47992535  1
  O  O329  1  0.84866935  0.07689749  0.47840812  1
  O  O330  1  0.25476664  0.55364288  0.49161379  1
  O  O331  1  0.59053750  0.38786665  0.49651174  1
  O  O332  1  0.61973931  0.95142160  0.48424868  1
  O  O333  1  0.81387954  0.20091008  0.49315832  1
  O  O334  1  0.10683820  0.91510925  0.50145154  1
  O  O335  1  0.29244142  0.70018095  0.51343161  1
  O  O336  1  0.85988695  0.83386368  0.50042468  1
  O  O337  1  0.46469685  0.63478345  0.52196205  1
  O  O338  1  0.88431991  0.33646734  0.51627340  1
  O  O339  1  0.95639614  0.59014018  0.52836039  1
  O  O340  1  0.47669749  0.14702140  0.52268380  1
  O  O341  1  0.96921662  0.98760225  0.52300305  1
  O  O342  1  0.04072925  0.46561947  0.52977576  1
  O  O343  1  0.93144126  0.72055602  0.53414977  1
  O  O344  1  0.40376847  0.43366805  0.54255267  1
  O  O345  1  0.64405867  0.08721863  0.53228674  1
  O  O346  1  0.29682635  0.01837516  0.54214759  1
  O  O347  1  0.18559106  0.31749615  0.54350046  1
  O  O348  1  0.42869293  0.91801254  0.54251758  1
  O  O349  1  0.34120204  0.22751144  0.55294928  1
  O  O350  1  0.21309481  0.81236067  0.54490408  1
  O  O351  1  0.98038564  0.16531000  0.54755166  1
  O  O352  1  0.72080429  0.52521639  0.55166904  1
  O  O353  1  0.57172114  0.76868602  0.55773307  1
  O  O354  1  0.64573528  0.27198490  0.56141920  1
  O  O355  1  0.68368014  0.65012529  0.54764931  1
  O  O356  1  0.14867247  0.09238092  0.56756234  1
  O  O357  1  0.72928951  0.89888884  0.55978093  1
  O  O358  1  0.16668350  0.59892174  0.58914818  1
  O  O359  1  0.77573995  0.41075918  0.57516711  1
  O  O360  1  0.33515294  0.53673533  0.59009828  1
  O  O361  1  0.51583033  0.28594137  0.64720803  1
  O  O362  1  0.79284586  0.04140521  0.58791568  1
  O  O363  1  0.01452454  0.82950888  0.60805483  1
  O  O364  1  0.99196889  0.29372919  0.61170567  1
  O  O365  1  0.37238929  0.68043850  0.60963202  1
  O  O366  1  0.78177686  0.17897110  0.59876499  1
  O  O367  1  0.16426979  0.41794673  0.61024336  1
  O  O368  1  0.76036939  0.78680674  0.63292296  1
  O  O369  1  0.37595755  0.12630936  0.61310671  1
  O  O370  1  0.08556272  0.70925096  0.61406314  1
  O  O371  1  0.49945676  0.02803475  0.60786819  1
  O  O372  1  0.84495252  0.62691290  0.61535959  1
  O  O373  1  0.24727298  0.92163358  0.61503082  1
  O  O374  1  0.54215116  0.87184791  0.61847568  1
  O  O375  1  0.94662234  0.50907468  0.62082766  1
  O  O376  1  0.16139150  0.22846247  0.64262291  1
  O  O377  1  0.61538390  0.42097401  0.62626475  1
  O  O378  1  0.94745792  0.95565684  0.62336077  1
  O  O379  1  0.28743855  0.79048434  0.63751992  1
  O  O380  1  0.32796376  0.34729282  0.62615946  1
  O  O381  1  0.55367371  0.61762131  0.62586440  1
  O  O382  1  0.79485036  0.32901620  0.64906857  1
  O  O383  1  0.95123938  0.12571400  0.65173661  1
