# generated using pymatgen
data_Li40La18Zr10O67
_symmetry_space_group_name_H-M   'P 1'
_cell_length_a   11.29297700
_cell_length_b   11.29297737
_cell_length_c   40.01105500
_cell_angle_alpha   90.00000000
_cell_angle_beta   90.00000000
_cell_angle_gamma   111.54263211
_symmetry_Int_Tables_number   1
_chemical_formula_structural   Li40La18Zr10O67
_chemical_formula_sum   'Li80 La36 Zr20 O134'
_cell_volume   4746.21466431
_cell_formula_units_Z   2
loop_
 _symmetry_equiv_pos_site_id
 _symmetry_equiv_pos_as_xyz
  1  'x, y, z'
loop_
 _atom_site_type_symbol
 _atom_site_label
 _atom_site_symmetry_multiplicity
 _atom_site_fract_x
 _atom_site_fract_y
 _atom_site_fract_z
 _atom_site_occupancy
  Li  Li0  1  0.28806622  0.51007194  0.10655451  1
  Li  Li1  1  0.73513558  0.98753427  0.11359200  1
  Li  Li2  1  0.85461566  0.44169163  0.10104263  1
  Li  Li3  1  0.94367552  0.93781437  0.12553917  1
  Li  Li4  1  0.06884460  0.55382635  0.12707916  1
  Li  Li5  1  0.00526326  0.74978791  0.14401103  1
  Li  Li6  1  0.37212668  0.53109354  0.16468690  1
  Li  Li7  1  0.14313599  0.97792901  0.16651598  1
  Li  Li8  1  0.62423059  0.97078850  0.17015185  1
  Li  Li9  1  0.85996450  0.52410448  0.16631212  1
  Li  Li10  1  0.49002353  0.73848180  0.19645526  1
  Li  Li11  1  0.56417904  0.54795345  0.20301948  1
  Li  Li12  1  0.43790217  0.94956317  0.20705569  1
  Li  Li13  1  0.32892242  0.44084488  0.22165759  1
  Li  Li14  1  0.24765727  0.00325275  0.22339317  1
  Li  Li15  1  0.75119325  0.50224371  0.22424815  1
  Li  Li16  1  0.70103564  0.09057433  0.22593062  1
  Li  Li17  1  0.19273627  0.20051784  0.24142936  1
  Li  Li18  1  0.79859388  0.31704271  0.24421013  1
  Li  Li19  1  0.97794978  0.23727295  0.25854411  1
  Li  Li20  1  0.77472644  0.60886983  0.27968921  1
  Li  Li21  1  0.21959179  0.38863628  0.28295176  1
  Li  Li22  1  0.22005197  0.88929602  0.28241258  1
  Li  Li23  1  0.77313164  0.10803685  0.28684850  1
  Li  Li24  1  0.98372532  0.73910967  0.30959467  1
  Li  Li25  1  0.80228783  0.81637103  0.32197325  1
  Li  Li26  1  0.19501083  0.69761372  0.32291873  1
  Li  Li27  1  0.69483537  0.58514160  0.34027479  1
  Li  Li28  1  0.74930613  0.00073635  0.34167837  1
  Li  Li29  1  0.24913920  0.50071550  0.34136858  1
  Li  Li30  1  0.33333592  0.94601108  0.34189544  1
  Li  Li31  1  0.44515589  0.44682076  0.36001490  1
  Li  Li32  1  0.56302557  0.05296976  0.36089766  1
  Li  Li33  1  0.48580078  0.23507479  0.37408778  1
  Li  Li34  1  0.85743990  0.02571979  0.39732702  1
  Li  Li35  1  0.63697405  0.47107580  0.40009808  1
  Li  Li36  1  0.13696827  0.47106917  0.39987483  1
  Li  Li37  1  0.35743668  0.02572182  0.40264439  1
  Li  Li38  1  0.98579488  0.23506547  0.42588406  1
  Li  Li39  1  0.06303541  0.05297073  0.43907608  1
  Li  Li40  1  0.94515879  0.44682078  0.43995684  1
  Li  Li41  1  0.83334268  0.94602069  0.45807627  1
  Li  Li42  1  0.74914423  0.50071421  0.45860394  1
  Li  Li43  1  0.24930843  0.00073376  0.45829313  1
  Li  Li44  1  0.19483490  0.58514766  0.45969597  1
  Li  Li45  1  0.69501286  0.69761605  0.47705185  1
  Li  Li46  1  0.30229395  0.81637418  0.47799832  1
  Li  Li47  1  0.48372328  0.73910152  0.49037687  1
  Li  Li48  1  0.27313429  0.10803864  0.51312161  1
  Li  Li49  1  0.72005549  0.88929447  0.51755797  1
  Li  Li50  1  0.71959978  0.38863412  0.51702210  1
  Li  Li51  1  0.27473207  0.60887317  0.52028188  1
  Li  Li52  1  0.47794748  0.23726781  0.54142861  1
  Li  Li53  1  0.29860001  0.31704789  0.55576392  1
  Li  Li54  1  0.69274424  0.20051799  0.55854310  1
  Li  Li55  1  0.20104991  0.09058053  0.57404098  1
  Li  Li56  1  0.25119994  0.50224743  0.57572263  1
  Li  Li57  1  0.74766208  0.00325236  0.57657897  1
  Li  Li58  1  0.82893012  0.44084346  0.57831561  1
  Li  Li59  1  0.93790667  0.94956171  0.59291607  1
  Li  Li60  1  0.06418701  0.54795356  0.59695224  1
  Li  Li61  1  0.99002146  0.73847455  0.60351437  1
  Li  Li62  1  0.35997289  0.52410100  0.63365762  1
  Li  Li63  1  0.12423615  0.97078614  0.62981703  1
  Li  Li64  1  0.64313794  0.97792647  0.63345559  1
  Li  Li65  1  0.87214279  0.53109856  0.63528602  1
  Li  Li66  1  0.50526989  0.74978527  0.65595949  1
  Li  Li67  1  0.56884843  0.55381887  0.67289173  1
  Li  Li68  1  0.44367795  0.93781105  0.67443206  1
  Li  Li69  1  0.35461771  0.44168718  0.69892956  1
  Li  Li70  1  0.23513514  0.98753257  0.68637956  1
  Li  Li71  1  0.78806437  0.51006858  0.69341509  1
  La  La72  1  0.82980824  0.68779185  0.08338955  1
  La  La73  1  0.17956272  0.80038604  0.08291006  1
  La  La74  1  0.50762672  0.75709255  0.11512236  1
  La  La75  1  0.98570267  0.25324480  0.11213009  1
  La  La76  1  0.57009936  0.43767232  0.12448278  1
  La  La77  1  0.43068084  0.05859917  0.13167977  1
  La  La78  1  0.94021210  0.06599016  0.19562531  1
  La  La79  1  0.05983646  0.43447724  0.19779660  1
  La  La80  1  0.00059235  0.75136785  0.22596941  1
  La  La81  1  0.49545552  0.25167088  0.22194920  1
  La  La82  1  0.68592834  0.81809969  0.25323315  1
  La  La83  1  0.31173874  0.68410048  0.25499097  1
  La  La84  1  0.31199068  0.18888823  0.31173529  1
  La  La85  1  0.68250190  0.31465702  0.31342293  1
  La  La86  1  0.99909804  0.25167374  0.34191098  1
  La  La87  1  0.49920614  0.75048913  0.34138882  1
  La  La88  1  0.06476344  0.93661304  0.36959220  1
  La  La89  1  0.93548937  0.56344887  0.37103607  1
  La  La90  1  0.43548978  0.56344907  0.42893545  1
  La  La91  1  0.56476261  0.93661391  0.43038077  1
  La  La92  1  0.49909807  0.25167364  0.45806189  1
  La  La93  1  0.99920587  0.75049273  0.45858228  1
  La  La94  1  0.18250442  0.31466123  0.48654959  1
  La  La95  1  0.81199455  0.18889241  0.48823717  1
  La  La96  1  0.81174334  0.68410005  0.54497985  1
  La  La97  1  0.18593567  0.81810489  0.54673797  1
  La  La98  1  0.50059723  0.75136513  0.57400181  1
  La  La99  1  0.99546033  0.25167002  0.57802323  1
  La  La100  1  0.55984421  0.43447595  0.60217554  1
  La  La101  1  0.44021723  0.06599065  0.60434774  1
  La  La102  1  0.93068242  0.05859395  0.66829238  1
  La  La103  1  0.07010143  0.43766889  0.67548744  1
  La  La104  1  0.00763257  0.75709149  0.68484891  1
  La  La105  1  0.48569816  0.25324037  0.68784247  1
  La  La106  1  0.67956526  0.80037942  0.71706162  1
  La  La107  1  0.32981194  0.68778535  0.71657952  1
  Zr  Zr108  1  0.75467412  0.75328541  0.16800886  1
  Zr  Zr109  1  0.25502330  0.25502660  0.16003752  1
  Zr  Zr110  1  0.74138225  0.25109986  0.16625884  1
  Zr  Zr111  1  0.24858770  0.74586193  0.16861066  1
  Zr  Zr112  1  0.00083643  0.00331469  0.28296581  1
  Zr  Zr113  1  0.49969513  0.50054119  0.28171767  1
  Zr  Zr114  1  0.49922417  0.00142885  0.28241264  1
  Zr  Zr115  1  0.99774443  0.50059103  0.28417558  1
  Zr  Zr116  1  0.24877959  0.25069041  0.39964714  1
  Zr  Zr117  1  0.74961085  0.75076793  0.39988439  1
  Zr  Zr118  1  0.24961433  0.75076967  0.40008711  1
  Zr  Zr119  1  0.74878056  0.25069358  0.40032507  1
  Zr  Zr120  1  0.49775042  0.50058922  0.51579647  1
  Zr  Zr121  1  0.99922699  0.00143229  0.51755986  1
  Zr  Zr122  1  0.99970452  0.50054823  0.51825472  1
  Zr  Zr123  1  0.50084249  0.00331704  0.51700680  1
  Zr  Zr124  1  0.74858969  0.74585904  0.63135980  1
  Zr  Zr125  1  0.24138671  0.25109745  0.63371408  1
  Zr  Zr126  1  0.75502871  0.25502526  0.63993481  1
  Zr  Zr127  1  0.25468220  0.75328604  0.63196134  1
  O  O128  1  0.74903817  0.83168301  0.11855966  1
  O  O129  1  0.26778941  0.67079411  0.11876683  1
  O  O130  1  0.37023660  0.25383973  0.11907638  1
  O  O131  1  0.62458627  0.24502936  0.12565948  1
  O  O132  1  0.19993696  0.87484189  0.13871383  1
  O  O133  1  0.79689151  0.61931604  0.13857527  1
  O  O134  1  0.08752492  0.10629544  0.13871211  1
  O  O135  1  0.18306860  0.39077709  0.13820800  1
  O  O136  1  0.82015426  0.11668573  0.14416450  1
  O  O137  1  0.91364434  0.39177381  0.14479456  1
  O  O138  1  0.55792971  0.65149196  0.16375398  1
  O  O139  1  0.44400284  0.85573235  0.16529380  1
  O  O140  1  0.95420997  0.86461661  0.17226031  1
  O  O141  1  0.05054291  0.63434358  0.17290003  1
  O  O142  1  0.41401180  0.39186628  0.18414278  1
  O  O143  1  0.31007175  0.11439721  0.18404189  1
  O  O144  1  0.68822450  0.38931968  0.18789126  1
  O  O145  1  0.58533394  0.11003251  0.18960126  1
  O  O146  1  0.28532889  0.60064784  0.19579921  1
  O  O147  1  0.72264538  0.90069134  0.19570316  1
  O  O148  1  0.13331233  0.25939775  0.20234570  1
  O  O149  1  0.86240820  0.24153252  0.20861280  1
  O  O150  1  0.76549093  0.67288310  0.21467022  1
  O  O151  1  0.23481039  0.82878252  0.21475765  1
  O  O152  1  0.08083315  0.99296142  0.23575582  1
  O  O153  1  0.91675875  0.51260624  0.23715778  1
  O  O154  1  0.49157979  0.61393846  0.23993596  1
  O  O155  1  0.50275707  0.87780955  0.24237336  1
  O  O156  1  0.13927258  0.46720036  0.25464270  1
  O  O157  1  0.85812651  0.04220033  0.25462408  1
  O  O158  1  0.35423994  0.33814599  0.25997904  1
  O  O159  1  0.63480816  0.43323319  0.26049634  1
  O  O160  1  0.36688148  0.06828865  0.25937181  1
  O  O161  1  0.64405182  0.16539782  0.26342439  1
  O  O162  1  0.89087541  0.80494093  0.27805010  1
  O  O163  1  0.10591866  0.70019037  0.27933125  1
  O  O164  1  0.10643566  0.20256109  0.28705463  1
  O  O165  1  0.88748560  0.30314632  0.28947678  1
  O  O166  1  0.64208500  0.66573450  0.30288340  1
  O  O167  1  0.36375996  0.56781162  0.30407253  1
  O  O168  1  0.63592133  0.93419700  0.30468702  1
  O  O169  1  0.35551118  0.83739934  0.30473725  1
  O  O170  1  0.85488770  0.53984769  0.31229097  1
  O  O171  1  0.14519509  0.97210066  0.31189022  1
  O  O172  1  0.50317347  0.38110409  0.32297772  1
  O  O173  1  0.48747601  0.11252641  0.32494653  1
  O  O174  1  0.91859321  0.01365365  0.33035842  1
  O  O175  1  0.07821969  0.48895709  0.33143761  1
  O  O176  1  0.23589696  0.32999726  0.35220623  1
  O  O177  1  0.75945077  0.16837482  0.35305794  1
  O  O178  1  0.86270566  0.74200795  0.35761039  1
  O  O179  1  0.12953771  0.75666805  0.35952418  1
  O  O180  1  0.71784689  0.39412112  0.37108233  1
  O  O181  1  0.28788744  0.10857563  0.37100705  1
  O  O182  1  0.58676979  0.60713512  0.37792916  1
  O  O183  1  0.68328044  0.88699053  0.37815822  1
  O  O184  1  0.31751209  0.61610304  0.37821606  1
  O  O185  1  0.41459687  0.89365941  0.37950124  1
  O  O186  1  0.05074329  0.14038732  0.39473523  1
  O  O187  1  0.94839494  0.35781819  0.39586331  1
  O  O188  1  0.44839458  0.35781857  0.40411039  1
  O  O189  1  0.55074318  0.14038892  0.40523678  1
  O  O190  1  0.91459678  0.89365724  0.42047122  1
  O  O191  1  0.81750724  0.61610089  0.42175536  1
  O  O192  1  0.18328118  0.88699436  0.42181185  1
  O  O193  1  0.08676984  0.60713639  0.42204201  1
  O  O194  1  0.78788810  0.10857284  0.42896433  1
  O  O195  1  0.21785164  0.39412378  0.42889087  1
  O  O196  1  0.62953318  0.75666766  0.44044698  1
  O  O197  1  0.36270444  0.74200639  0.44236146  1
  O  O198  1  0.25944811  0.16837144  0.44691460  1
  O  O199  1  0.73590156  0.32999515  0.44776724  1
  O  O200  1  0.57822659  0.48895845  0.46853404  1
  O  O201  1  0.41859598  0.01365479  0.46961516  1
  O  O202  1  0.98748029  0.11253007  0.47502581  1
  O  O203  1  0.00317787  0.38110988  0.47699505  1
  O  O204  1  0.64519959  0.97210376  0.48808213  1
  O  O205  1  0.35489716  0.53985134  0.48768048  1
  O  O206  1  0.85551468  0.83740070  0.49523425  1
  O  O207  1  0.13592117  0.93419663  0.49528421  1
  O  O208  1  0.86376918  0.56781845  0.49589914  1
  O  O209  1  0.14209383  0.66573971  0.49708906  1
  O  O210  1  0.38749250  0.30314656  0.51049425  1
  O  O211  1  0.60644262  0.20256167  0.51291950  1
  O  O212  1  0.60592297  0.70019047  0.52064025  1
  O  O213  1  0.39088248  0.80494140  0.52192264  1
  O  O214  1  0.14405652  0.16539910  0.53654821  1
  O  O215  1  0.86688537  0.06828938  0.54060010  1
  O  O216  1  0.13481730  0.43324298  0.53947522  1
  O  O217  1  0.85424949  0.33815076  0.53999418  1
  O  O218  1  0.35813028  0.04220316  0.54534741  1
  O  O219  1  0.63928374  0.46720733  0.54532889  1
  O  O220  1  0.00275966  0.87780965  0.55759889  1
  O  O221  1  0.99158820  0.61394450  0.56003620  1
  O  O222  1  0.41676399  0.51260529  0.56281411  1
  O  O223  1  0.58083643  0.99296136  0.56421824  1
  O  O224  1  0.73481661  0.82878106  0.58521424  1
  O  O225  1  0.26549665  0.67288429  0.58530077  1
  O  O226  1  0.36241572  0.24153195  0.59135940  1
  O  O227  1  0.63332369  0.25940004  0.59762714  1
  O  O228  1  0.22265816  0.90069696  0.60426727  1
  O  O229  1  0.78534073  0.60064613  0.60417376  1
  O  O230  1  0.08533802  0.11003081  0.61036984  1
  O  O231  1  0.18822885  0.38931781  0.61207811  1
  O  O232  1  0.81007611  0.11439990  0.61593042  1
  O  O233  1  0.91402282  0.39186669  0.61583102  1
  O  O234  1  0.55055010  0.63434134  0.62707186  1
  O  O235  1  0.45421492  0.86461554  0.62771183  1
  O  O236  1  0.94401117  0.85573187  0.63467763  1
  O  O237  1  0.05793717  0.65149330  0.63621689  1
  O  O238  1  0.41364475  0.39176786  0.65517689  1
  O  O239  1  0.32015314  0.11668421  0.65580748  1
  O  O240  1  0.68306655  0.39077340  0.66176366  1
  O  O241  1  0.58752807  0.10629385  0.66125950  1
  O  O242  1  0.29689559  0.61931154  0.66139298  1
  O  O243  1  0.69994601  0.87484135  0.66125644  1
  O  O244  1  0.12458372  0.24503118  0.67431169  1
  O  O245  1  0.87023686  0.25383532  0.68089657  1
  O  O246  1  0.76779545  0.67079500  0.68120578  1
  O  O247  1  0.24904408  0.83168305  0.68141106  1
  O  O248  1  0.07201768  0.97909097  0.69655033  1
  O  O249  1  0.96301739  0.55285082  0.70178645  1
  O  O250  1  0.49707943  0.61607087  0.70960536  1
  O  O251  1  0.51393408  0.87243071  0.71105162  1
  O  O252  1  0.21006074  0.47392984  0.72334224  1
  O  O253  1  0.80343803  0.01884927  0.71923621  1
  O  O254  1  0.34724616  0.27275653  0.72500151  1
  O  O255  1  0.84724725  0.27275514  0.07496915  1
  O  O256  1  0.30343864  0.01885663  0.08073569  1
  O  O257  1  0.71006321  0.47393028  0.07662962  1
  O  O258  1  0.01392955  0.87243725  0.08891832  1
  O  O259  1  0.99707760  0.61607856  0.09036491  1
  O  O260  1  0.46302131  0.55285737  0.09818078  1
  O  O261  1  0.57201703  0.97909193  0.10342311  1
  Li  Li262  1  0.65237285  0.02320938  0.69579617  1
  Li  Li263  1  0.18531802  0.15943995  0.70688592  1
  Li  Li264  1  0.85071504  0.18962046  0.72360205  1
  Li  Li265  1  0.25986656  0.35994595  0.74681284  1
  Li  Li266  1  0.75987423  0.35994947  0.05315806  1
  Li  Li267  1  0.35071710  0.18962934  0.07637013  1
  Li  Li268  1  0.68531885  0.15943845  0.09308537  1
  Li  Li269  1  0.15237104  0.02321492  0.10417576  1
