# generated using pymatgen
data_Li40La18Zr10O67
_symmetry_space_group_name_H-M   'P 1'
_cell_length_a   11.29297700
_cell_length_b   11.29297737
_cell_length_c   40.01105500
_cell_angle_alpha   90.00000000
_cell_angle_beta   90.00000000
_cell_angle_gamma   111.54263211
_symmetry_Int_Tables_number   1
_chemical_formula_structural   Li40La18Zr10O67
_chemical_formula_sum   'Li80 La36 Zr20 O134'
_cell_volume   4746.21466431
_cell_formula_units_Z   2
loop_
 _symmetry_equiv_pos_site_id
 _symmetry_equiv_pos_as_xyz
  1  'x, y, z'
loop_
 _atom_site_type_symbol
 _atom_site_label
 _atom_site_symmetry_multiplicity
 _atom_site_fract_x
 _atom_site_fract_y
 _atom_site_fract_z
 _atom_site_occupancy
  Li  Li0  1  0.26131009  0.14197015  0.05356844  1
  Li  Li1  1  0.32348427  0.34231812  0.09309276  1
  Li  Li2  1  0.65408556  0.13991566  0.08261790  1
  Li  Li3  1  0.15751994  0.06351520  0.10161070  1
  Li  Li4  1  0.27779679  0.52007737  0.11108457  1
  Li  Li5  1  0.74641232  0.01572408  0.10593557  1
  Li  Li6  1  0.80593924  0.34038246  0.09776320  1
  Li  Li7  1  0.94108906  0.95197623  0.12964642  1
  Li  Li8  1  0.02187901  0.55282067  0.12182269  1
  Li  Li9  1  0.02056423  0.77582058  0.14407367  1
  Li  Li10  1  0.37168824  0.53092083  0.16904293  1
  Li  Li11  1  0.14898372  0.98212292  0.16897544  1
  Li  Li12  1  0.63936808  0.97619517  0.16300853  1
  Li  Li13  1  0.85364723  0.52220805  0.16211076  1
  Li  Li14  1  0.51635086  0.76831537  0.19580162  1
  Li  Li15  1  0.56286600  0.55584410  0.20733626  1
  Li  Li16  1  0.43496733  0.95081536  0.20285692  1
  Li  Li17  1  0.30100194  0.41623508  0.22509739  1
  Li  Li18  1  0.25165763  0.99859858  0.22537013  1
  Li  Li19  1  0.75483262  0.49847866  0.22242492  1
  Li  Li20  1  0.66198150  0.05682941  0.22255655  1
  Li  Li21  1  0.20015415  0.18537235  0.24292833  1
  Li  Li22  1  0.80460719  0.30548181  0.24286959  1
  Li  Li23  1  0.02027781  0.26706589  0.25717368  1
  Li  Li24  1  0.77608431  0.60629541  0.27941379  1
  Li  Li25  1  0.22703411  0.39516612  0.28604081  1
  Li  Li26  1  0.22091704  0.88803163  0.28328693  1
  Li  Li27  1  0.78160939  0.11625072  0.28226815  1
  Li  Li28  1  0.98636779  0.73698194  0.30923945  1
  Li  Li29  1  0.80579604  0.81263580  0.32273176  1
  Li  Li30  1  0.19896131  0.69432104  0.32216134  1
  Li  Li31  1  0.69111704  0.57657747  0.34054716  1
  Li  Li32  1  0.75201356  0.00134486  0.34047500  1
  Li  Li33  1  0.25188626  0.50099740  0.34210980  1
  Li  Li34  1  0.33255233  0.94087951  0.34210847  1
  Li  Li35  1  0.44708588  0.44616609  0.36037928  1
  Li  Li36  1  0.56569067  0.05249108  0.36093221  1
  Li  Li37  1  0.49067366  0.23479850  0.37436874  1
  Li  Li38  1  0.86096532  0.02456165  0.39662411  1
  Li  Li39  1  0.64087023  0.46964147  0.39988475  1
  Li  Li40  1  0.14087438  0.46964281  0.40008572  1
  Li  Li41  1  0.36096758  0.02456281  0.40334821  1
  Li  Li42  1  0.99067496  0.23480646  0.42560296  1
  Li  Li43  1  0.06568789  0.05249547  0.43903989  1
  Li  Li44  1  0.94708321  0.44616655  0.43959178  1
  Li  Li45  1  0.83255559  0.94088401  0.45786433  1
  Li  Li46  1  0.75188505  0.50099768  0.45786138  1
  Li  Li47  1  0.25201560  0.00134794  0.45949640  1
  Li  Li48  1  0.19110791  0.57657214  0.45942506  1
  Li  Li49  1  0.69895998  0.69431768  0.47781178  1
  Li  Li50  1  0.30579408  0.81263562  0.47723957  1
  Li  Li51  1  0.48636489  0.73698095  0.49073184  1
  Li  Li52  1  0.28160917  0.11625209  0.51770423  1
  Li  Li53  1  0.72091552  0.88803245  0.51668375  1
  Li  Li54  1  0.72703325  0.39517077  0.51393009  1
  Li  Li55  1  0.27608284  0.60629574  0.52055717  1
  Li  Li56  1  0.52027480  0.26707062  0.54279749  1
  Li  Li57  1  0.30460026  0.30547935  0.55710109  1
  Li  Li58  1  0.70015588  0.18537545  0.55704353  1
  Li  Li59  1  0.16198222  0.05682878  0.57741632  1
  Li  Li60  1  0.25483134  0.49848288  0.57754683  1
  Li  Li61  1  0.75166148  0.99860278  0.57460080  1
  Li  Li62  1  0.80099436  0.41623611  0.57487403  1
  Li  Li63  1  0.93496738  0.95081696  0.59711512  1
  Li  Li64  1  0.06287076  0.55585244  0.59263487  1
  Li  Li65  1  0.01635363  0.76832351  0.60417105  1
  Li  Li66  1  0.35364740  0.52220960  0.63785931  1
  Li  Li67  1  0.13936963  0.97620068  0.63696427  1
  Li  Li68  1  0.64898857  0.98213129  0.63099422  1
  Li  Li69  1  0.87169179  0.53092700  0.63092929  1
  Li  Li70  1  0.52056124  0.77582359  0.65589639  1
  Li  Li71  1  0.52186898  0.55282656  0.67814794  1
  Li  Li72  1  0.44109286  0.95198447  0.67032441  1
  Li  Li73  1  0.30594530  0.34038703  0.70220864  1
  Li  Li74  1  0.24641710  0.01572741  0.69403634  1
  Li  Li75  1  0.77780193  0.52008430  0.68888787  1
  Li  Li76  1  0.65752674  0.06352095  0.69836105  1
  Li  Li77  1  0.15409473  0.13992107  0.71735321  1
  Li  Li78  1  0.82349064  0.34232433  0.70687749  1
  Li  Li79  1  0.76131436  0.14197731  0.74640379  1
  La  La80  1  0.83818411  0.71508892  0.08399398  1
  La  La81  1  0.18203508  0.81243050  0.08284588  1
  La  La82  1  0.50772580  0.75584655  0.11463561  1
  La  La83  1  0.01131976  0.24101666  0.10589903  1
  La  La84  1  0.56282830  0.43564221  0.13697760  1
  La  La85  1  0.42948349  0.06546330  0.12897481  1
  La  La86  1  0.93575412  0.07063531  0.19674357  1
  La  La87  1  0.05981925  0.43745322  0.19345452  1
  La  La88  1  0.00066304  0.75202359  0.22570976  1
  La  La89  1  0.50194300  0.25074716  0.22288447  1
  La  La90  1  0.68870670  0.81848305  0.25497743  1
  La  La91  1  0.31432616  0.68536219  0.25300809  1
  La  La92  1  0.31659457  0.18844049  0.31247227  1
  La  La93  1  0.68835533  0.31448097  0.31305869  1
  La  La94  1  0.00280620  0.25011884  0.34152381  1
  La  La95  1  0.50188894  0.74940931  0.34150459  1
  La  La96  1  0.06858163  0.93543583  0.36979907  1
  La  La97  1  0.94023226  0.56271561  0.37041696  1
  La  La98  1  0.44023229  0.56271499  0.42955600  1
  La  La99  1  0.56858521  0.93543870  0.43017281  1
  La  La100  1  0.50280708  0.25012129  0.45844667  1
  La  La101  1  0.00188987  0.74941311  0.45846771  1
  La  La102  1  0.18835394  0.31447968  0.48691233  1
  La  La103  1  0.81659229  0.18844303  0.48750005  1
  La  La104  1  0.81432730  0.68536479  0.54696358  1
  La  La105  1  0.18870512  0.81848436  0.54499456  1
  La  La106  1  0.50066569  0.75203084  0.57426186  1
  La  La107  1  0.00194491  0.25075353  0.57708760  1
  La  La108  1  0.55982025  0.43745901  0.60651717  1
  La  La109  1  0.43575672  0.07064317  0.60322787  1
  La  La110  1  0.92948933  0.06546775  0.67099849  1
  La  La111  1  0.06283017  0.43564760  0.66299468  1
  La  La112  1  0.00773093  0.75585439  0.68533700  1
  La  La113  1  0.51132466  0.24102264  0.69407161  1
  La  La114  1  0.68203624  0.81243396  0.71712522  1
  La  La115  1  0.33818866  0.71509836  0.71597754  1
  Zr  Zr116  1  0.75351087  0.75464716  0.16835547  1
  Zr  Zr117  1  0.25261662  0.25213234  0.16557911  1
  Zr  Zr118  1  0.74933724  0.24539109  0.16262033  1
  Zr  Zr119  1  0.24871282  0.74510674  0.16663912  1
  Zr  Zr120  1  0.00325719  0.00220060  0.28343476  1
  Zr  Zr121  1  0.50160111  0.50120256  0.28232459  1
  Zr  Zr122  1  0.50041378  0.00168562  0.28247396  1
  Zr  Zr123  1  0.00145897  0.50005533  0.28268028  1
  Zr  Zr124  1  0.25323538  0.25038731  0.39995350  1
  Zr  Zr125  1  0.75337257  0.74937908  0.39971745  1
  Zr  Zr126  1  0.25337308  0.74937845  0.40025570  1
  Zr  Zr127  1  0.75323796  0.25038639  0.40001716  1
  Zr  Zr128  1  0.50145412  0.50005809  0.51729252  1
  Zr  Zr129  1  0.00041255  0.00169103  0.51749829  1
  Zr  Zr130  1  0.00159891  0.50120297  0.51764714  1
  Zr  Zr131  1  0.50325762  0.00220465  0.51653687  1
  Zr  Zr132  1  0.74871392  0.74511130  0.63333331  1
  Zr  Zr133  1  0.24933802  0.24539576  0.63735068  1
  Zr  Zr134  1  0.75262035  0.25213593  0.63439297  1
  Zr  Zr135  1  0.25351165  0.75465665  0.63161574  1
  O  O136  1  0.44937905  0.52813741  0.10115220  1
  O  O137  1  0.56109043  0.97318611  0.10151582  1
  O  O138  1  0.74613514  0.83906661  0.11883015  1
  O  O139  1  0.27143561  0.68188257  0.11574231  1
  O  O140  1  0.37736296  0.25340725  0.12656938  1
  O  O141  1  0.63973642  0.26107592  0.11920114  1
  O  O142  1  0.20756315  0.88456580  0.13901084  1
  O  O143  1  0.78201399  0.61505300  0.13471261  1
  O  O144  1  0.08964119  0.10747150  0.14523152  1
  O  O145  1  0.19464213  0.39324845  0.14312565  1
  O  O146  1  0.81783015  0.10199319  0.14791840  1
  O  O147  1  0.91060349  0.38906542  0.13931268  1
  O  O148  1  0.55631023  0.64888988  0.16454062  1
  O  O149  1  0.44528626  0.85142595  0.16306755  1
  O  O150  1  0.95041772  0.86411100  0.17326719  1
  O  O151  1  0.04715831  0.63718820  0.16800618  1
  O  O152  1  0.41927390  0.39519339  0.18823874  1
  O  O153  1  0.31324499  0.11531709  0.18879888  1
  O  O154  1  0.68849738  0.38686644  0.18488346  1
  O  O155  1  0.58294835  0.10927948  0.18443128  1
  O  O156  1  0.27696684  0.60083876  0.19550522  1
  O  O157  1  0.71056766  0.89300034  0.19585661  1
  O  O158  1  0.13754587  0.26368286  0.20778076  1
  O  O159  1  0.86894421  0.25102567  0.20501704  1
  O  O160  1  0.76558555  0.66984535  0.21365525  1
  O  O161  1  0.23554864  0.82792157  0.21292294  1
  O  O162  1  0.08557098  0.98934382  0.23703593  1
  O  O163  1  0.92292312  0.51596284  0.23562354  1
  O  O164  1  0.49639080  0.62517539  0.24217159  1
  O  O165  1  0.50802552  0.89019005  0.24016407  1
  O  O166  1  0.14324716  0.46272931  0.25418264  1
  O  O167  1  0.86015502  0.03506924  0.25417414  1
  O  O168  1  0.35720908  0.33753085  0.26220685  1
  O  O169  1  0.63625390  0.43724663  0.25916329  1
  O  O170  1  0.36594172  0.07020807  0.26157717  1
  O  O171  1  0.64434893  0.16451380  0.26080179  1
  O  O172  1  0.89284708  0.80249559  0.27811623  1
  O  O173  1  0.10957757  0.69976070  0.27864689  1
  O  O174  1  0.11163462  0.20061201  0.28852039  1
  O  O175  1  0.89300623  0.30193058  0.28712271  1
  O  O176  1  0.64533006  0.66587913  0.30389152  1
  O  O177  1  0.36504424  0.56716066  0.30463429  1
  O  O178  1  0.63671572  0.93316631  0.30398769  1
  O  O179  1  0.35867001  0.83743022  0.30402333  1
  O  O180  1  0.85829031  0.53710269  0.31141950  1
  O  O181  1  0.14746526  0.97044688  0.31274708  1
  O  O182  1  0.51227552  0.38529751  0.32346546  1
  O  O183  1  0.49468611  0.11533552  0.32495994  1
  O  O184  1  0.92133439  0.01130626  0.33088876  1
  O  O185  1  0.08151494  0.48673420  0.33029782  1
  O  O186  1  0.24136435  0.33116462  0.35267706  1
  O  O187  1  0.76456479  0.16983514  0.35246079  1
  O  O188  1  0.86860921  0.74026770  0.35779340  1
  O  O189  1  0.13631504  0.75635905  0.35921495  1
  O  O190  1  0.72247478  0.39414341  0.37056957  1
  O  O191  1  0.29281665  0.10846180  0.37159435  1
  O  O192  1  0.58962479  0.60605601  0.37839595  1
  O  O193  1  0.68717106  0.88559761  0.37756759  1
  O  O194  1  0.32110472  0.61477763  0.37857228  1
  O  O195  1  0.41799467  0.89284615  0.37939586  1
  O  O196  1  0.05559734  0.13993700  0.39471279  1
  O  O197  1  0.95296075  0.35726486  0.39554231  1
  O  O198  1  0.45295995  0.35726784  0.40442964  1
  O  O199  1  0.55559731  0.13993399  0.40525893  1
  O  O200  1  0.91799721  0.89285095  0.42057699  1
  O  O201  1  0.82111069  0.61477703  0.42139823  1
  O  O202  1  0.18717041  0.88559562  0.42240528  1
  O  O203  1  0.08962676  0.60605100  0.42157564  1
  O  O204  1  0.79281699  0.10846242  0.42837728  1
  O  O205  1  0.22247468  0.39414549  0.42940171  1
  O  O206  1  0.63631886  0.75635784  0.44075759  1
  O  O207  1  0.36861118  0.74026794  0.44217895  1
  O  O208  1  0.26456595  0.16983937  0.44751078  1
  O  O209  1  0.74136412  0.33116800  0.44729369  1
  O  O210  1  0.58151155  0.48673910  0.46967439  1
  O  O211  1  0.42133932  0.01131480  0.46908282  1
  O  O212  1  0.99468911  0.11534251  0.47501269  1
  O  O213  1  0.01227016  0.38529766  0.47650572  1
  O  O214  1  0.64746902  0.97045263  0.48722483  1
  O  O215  1  0.35829217  0.53710686  0.48855171  1
  O  O216  1  0.85867217  0.83743165  0.49594868  1
  O  O217  1  0.13671720  0.93317201  0.49598486  1
  O  O218  1  0.86504325  0.56716234  0.49533736  1
  O  O219  1  0.14533011  0.66588088  0.49608068  1
  O  O220  1  0.39299819  0.30193466  0.51285022  1
  O  O221  1  0.61163516  0.20061483  0.51145145  1
  O  O222  1  0.60957782  0.69976337  0.52132466  1
  O  O223  1  0.39284898  0.80249827  0.52185489  1
  O  O224  1  0.14434556  0.16451616  0.53917060  1
  O  O225  1  0.86593982  0.07021311  0.53839424  1
  O  O226  1  0.13625420  0.43725115  0.54080853  1
  O  O227  1  0.85720631  0.33753179  0.53776505  1
  O  O228  1  0.36015433  0.03507111  0.54579751  1
  O  O229  1  0.64324643  0.46273443  0.54578897  1
  O  O230  1  0.00802355  0.89019203  0.55980705  1
  O  O231  1  0.99639345  0.62517870  0.55779972  1
  O  O232  1  0.42292391  0.51597056  0.56434937  1
  O  O233  1  0.58557346  0.98934748  0.56293620  1
  O  O234  1  0.73554734  0.82792454  0.58704983  1
  O  O235  1  0.26558311  0.66985023  0.58631675  1
  O  O236  1  0.36894252  0.25102812  0.59495173  1
  O  O237  1  0.63754623  0.26368923  0.59219182  1
  O  O238  1  0.21056679  0.89300706  0.60411533  1
  O  O239  1  0.77696448  0.60084182  0.60446687  1
  O  O240  1  0.08294870  0.10928584  0.61554062  1
  O  O241  1  0.18849968  0.38687054  0.61508805  1
  O  O242  1  0.81325019  0.11532239  0.61117317  1
  O  O243  1  0.91927573  0.39519637  0.61173282  1
  O  O244  1  0.54715868  0.63719031  0.63196688  1
  O  O245  1  0.45041744  0.86412286  0.62670425  1
  O  O246  1  0.94528898  0.85143380  0.63690461  1
  O  O247  1  0.05631021  0.64889656  0.63543141  1
  O  O248  1  0.41060445  0.38906626  0.66065813  1
  O  O249  1  0.31783513  0.10200001  0.65205256  1
  O  O250  1  0.69464855  0.39325579  0.65684640  1
  O  O251  1  0.58964599  0.10747687  0.65473940  1
  O  O252  1  0.28202166  0.61505897  0.66525803  1
  O  O253  1  0.70756487  0.88457022  0.66096015  1
  O  O254  1  0.13974337  0.26108096  0.68077181  1
  O  O255  1  0.87736754  0.25341111  0.67340261  1
  O  O256  1  0.77144570  0.68189166  0.68423111  1
  O  O257  1  0.24613767  0.83907480  0.68114129  1
  O  O258  1  0.06109968  0.97319470  0.69845460  1
  O  O259  1  0.94938442  0.52814451  0.69881970  1
  O  O260  1  0.48790230  0.63278858  0.71729157  1
  O  O261  1  0.50965683  0.88324851  0.70620030  1
  O  O262  1  0.80006212  0.02123014  0.72251893  1
  O  O263  1  0.33004973  0.19410924  0.72103991  1
  O  O264  1  0.67080075  0.22489065  0.72552001  1
  O  O265  1  0.17079838  0.22489024  0.07445095  1
  O  O266  1  0.83004078  0.19410447  0.07893257  1
  O  O267  1  0.30005423  0.02122800  0.07745290  1
  O  O268  1  0.00965612  0.88324046  0.09377167  1
  O  O269  1  0.98789912  0.63277974  0.08268036  1
