# generated using pymatgen
data_Li40La18Zr10O67
_symmetry_space_group_name_H-M   'P 1'
_cell_length_a   11.29297700
_cell_length_b   11.29297737
_cell_length_c   40.01105500
_cell_angle_alpha   90.00000000
_cell_angle_beta   90.00000000
_cell_angle_gamma   111.54263211
_symmetry_Int_Tables_number   1
_chemical_formula_structural   Li40La18Zr10O67
_chemical_formula_sum   'Li80 La36 Zr20 O134'
_cell_volume   4746.21466431
_cell_formula_units_Z   2
loop_
 _symmetry_equiv_pos_site_id
 _symmetry_equiv_pos_as_xyz
  1  'x, y, z'
loop_
 _atom_site_type_symbol
 _atom_site_label
 _atom_site_symmetry_multiplicity
 _atom_site_fract_x
 _atom_site_fract_y
 _atom_site_fract_z
 _atom_site_occupancy
  Li  Li0  1  0.28806369  0.21166693  0.08424542  1
  Li  Li1  1  0.39160976  0.45417841  0.06991613  1
  Li  Li2  1  0.66011141  0.14106016  0.08162462  1
  Li  Li3  1  0.14264592  0.00926883  0.11227430  1
  Li  Li4  1  0.24183436  0.49543174  0.10889667  1
  Li  Li5  1  0.74967141  0.01908734  0.10605956  1
  Li  Li6  1  0.81005257  0.33958038  0.09715089  1
  Li  Li7  1  0.92802161  0.95225284  0.12928634  1
  Li  Li8  1  0.01095387  0.55373972  0.12167577  1
  Li  Li9  1  0.00621614  0.76958315  0.14386258  1
  Li  Li10  1  0.36567278  0.52941623  0.17009889  1
  Li  Li11  1  0.14958463  0.97557850  0.17261605  1
  Li  Li12  1  0.63772436  0.97512545  0.16308394  1
  Li  Li13  1  0.85567853  0.52161879  0.16441986  1
  Li  Li14  1  0.50595620  0.76421196  0.19458304  1
  Li  Li15  1  0.55847291  0.55494356  0.20695322  1
  Li  Li16  1  0.43047309  0.95114733  0.20200765  1
  Li  Li17  1  0.30075767  0.41208942  0.22564525  1
  Li  Li18  1  0.25189358  0.00013100  0.22595291  1
  Li  Li19  1  0.75199081  0.49904909  0.22250620  1
  Li  Li20  1  0.65734380  0.05186123  0.22229645  1
  Li  Li21  1  0.19909347  0.18446935  0.24369898  1
  Li  Li22  1  0.80366134  0.30544646  0.24258064  1
  Li  Li23  1  0.01798687  0.26605131  0.25732450  1
  Li  Li24  1  0.77506884  0.60575230  0.27904453  1
  Li  Li25  1  0.22508723  0.39535856  0.28620069  1
  Li  Li26  1  0.21866314  0.88705637  0.28398384  1
  Li  Li27  1  0.77992761  0.11601474  0.28197284  1
  Li  Li28  1  0.98367230  0.73598426  0.30929529  1
  Li  Li29  1  0.80388027  0.81227972  0.32267253  1
  Li  Li30  1  0.19748281  0.69368120  0.32230867  1
  Li  Li31  1  0.68986279  0.57639773  0.34045864  1
  Li  Li32  1  0.75023257  0.00107751  0.34026174  1
  Li  Li33  1  0.25055270  0.50084077  0.34215963  1
  Li  Li34  1  0.33237512  0.94219586  0.34239060  1
  Li  Li35  1  0.44590487  0.44609869  0.36047790  1
  Li  Li36  1  0.56454761  0.05239869  0.36103160  1
  Li  Li37  1  0.48947145  0.23454825  0.37441173  1
  Li  Li38  1  0.85933530  0.02438766  0.39627070  1
  Li  Li39  1  0.63977537  0.46945717  0.39981506  1
  Li  Li40  1  0.13977537  0.46945717  0.40015594  1
  Li  Li41  1  0.35933530  0.02438766  0.40370130  1
  Li  Li42  1  0.98947145  0.23454825  0.42556027  1
  Li  Li43  1  0.06454761  0.05239869  0.43894040  1
  Li  Li44  1  0.94590487  0.44609869  0.43949310  1
  Li  Li45  1  0.83237512  0.94219586  0.45758140  1
  Li  Li46  1  0.75055270  0.50084077  0.45781237  1
  Li  Li47  1  0.25023257  0.00107751  0.45971026  1
  Li  Li48  1  0.18986279  0.57639773  0.45951336  1
  Li  Li49  1  0.69748281  0.69368120  0.47766333  1
  Li  Li50  1  0.30388027  0.81227972  0.47729947  1
  Li  Li51  1  0.48367230  0.73598426  0.49067671  1
  Li  Li52  1  0.27992761  0.11601474  0.51799816  1
  Li  Li53  1  0.71866314  0.88705637  0.51598816  1
  Li  Li54  1  0.72508723  0.39535856  0.51377131  1
  Li  Li55  1  0.27506884  0.60575230  0.52092647  1
  Li  Li56  1  0.51798687  0.26605131  0.54264750  1
  Li  Li57  1  0.30366134  0.30544646  0.55739136  1
  Li  Li58  1  0.69909347  0.18446935  0.55627302  1
  Li  Li59  1  0.15734380  0.05186123  0.57767555  1
  Li  Li60  1  0.25198981  0.49904909  0.57746580  1
  Li  Li61  1  0.75189358  0.00013100  0.57401909  1
  Li  Li62  1  0.80075767  0.41208942  0.57432575  1
  Li  Li63  1  0.93047309  0.95114733  0.59796335  1
  Li  Li64  1  0.05847291  0.55494356  0.59301878  1
  Li  Li65  1  0.00595620  0.76421196  0.60538896  1
  Li  Li66  1  0.35567853  0.52161879  0.63555214  1
  Li  Li67  1  0.13772436  0.97512545  0.63688706  1
  Li  Li68  1  0.64958463  0.97557850  0.62735495  1
  Li  Li69  1  0.86567278  0.52941623  0.62987311  1
  Li  Li70  1  0.50621614  0.76958315  0.65610942  1
  Li  Li71  1  0.51095387  0.55373972  0.67829623  1
  Li  Li72  1  0.42802161  0.95225284  0.67068566  1
  Li  Li73  1  0.31005257  0.33958038  0.70282111  1
  Li  Li74  1  0.24967141  0.01908734  0.69391244  1
  Li  Li75  1  0.74183536  0.49543174  0.69107533  1
  Li  Li76  1  0.64264592  0.00926883  0.68769770  1
  Li  Li77  1  0.16011141  0.14106016  0.71834738  1
  Li  Li78  1  0.89160976  0.45417841  0.73005587  1
  Li  Li79  1  0.78806369  0.21166693  0.71572658  1
  La  La80  1  0.81789004  0.70330639  0.08496225  1
  La  La81  1  0.16927553  0.80855437  0.08126874  1
  La  La82  1  0.50993045  0.75859486  0.11242940  1
  La  La83  1  0.02286831  0.25385588  0.10541702  1
  La  La84  1  0.57064176  0.43735391  0.13607277  1
  La  La85  1  0.42988147  0.06507668  0.12814585  1
  La  La86  1  0.93681721  0.07204424  0.19714477  1
  La  La87  1  0.06398978  0.43794779  0.19369701  1
  La  La88  1  0.99948472  0.75200106  0.22581408  1
  La  La89  1  0.50288570  0.25030600  0.22272347  1
  La  La90  1  0.68584129  0.81727392  0.25484597  1
  La  La91  1  0.31324568  0.68612708  0.25309304  1
  La  La92  1  0.31534948  0.18869819  0.31264438  1
  La  La93  1  0.68696362  0.31424612  0.31303439  1
  La  La94  1  0.00154972  0.24996648  0.34152389  1
  La  La95  1  0.50026479  0.74919145  0.34153398  1
  La  La96  1  0.06717636  0.93508780  0.36982255  1
  La  La97  1  0.93895729  0.56247250  0.37041777  1
  La  La98  1  0.43895729  0.56247250  0.42955423  1
  La  La99  1  0.56717636  0.93508780  0.43014945  1
  La  La100  1  0.50154972  0.24996648  0.45844811  1
  La  La101  1  0.00026479  0.74919145  0.45843802  1
  La  La102  1  0.18696362  0.31424612  0.48693661  1
  La  La103  1  0.81534948  0.18869819  0.48732662  1
  La  La104  1  0.81324568  0.68612708  0.54687796  1
  La  La105  1  0.18584129  0.81727392  0.54512503  1
  La  La106  1  0.49948472  0.75200106  0.57415792  1
  La  La107  1  0.00288570  0.25030600  0.57724853  1
  La  La108  1  0.56398978  0.43794779  0.60627499  1
  La  La109  1  0.43681721  0.07204424  0.60282723  1
  La  La110  1  0.92988147  0.06507668  0.67182615  1
  La  La111  1  0.07064176  0.43735391  0.66389923  1
  La  La112  1  0.00993045  0.75859486  0.68754260  1
  La  La113  1  0.52286831  0.25385588  0.69455498  1
  La  La114  1  0.66927553  0.80855437  0.71870226  1
  La  La115  1  0.31789104  0.70330639  0.71500875  1
  Zr  Zr116  1  0.74924480  0.75582718  0.16916843  1
  Zr  Zr117  1  0.25690370  0.25444871  0.16531027  1
  Zr  Zr118  1  0.75179559  0.24418498  0.16242235  1
  Zr  Zr119  1  0.24566277  0.74487341  0.16511894  1
  Zr  Zr120  1  0.00144620  0.00180710  0.28355938  1
  Zr  Zr121  1  0.50005812  0.50076372  0.28242242  1
  Zr  Zr122  1  0.49857617  0.00160413  0.28250095  1
  Zr  Zr123  1  0.99960685  0.50006316  0.28259196  1
  Zr  Zr124  1  0.25202028  0.25013948  0.40000477  1
  Zr  Zr125  1  0.75191700  0.74915278  0.39962011  1
  Zr  Zr126  1  0.25191700  0.74915278  0.40035189  1
  Zr  Zr127  1  0.75202028  0.25013948  0.39996623  1
  Zr  Zr128  1  0.49960685  0.50006316  0.51738004  1
  Zr  Zr129  1  0.99857617  0.00160413  0.51747105  1
  Zr  Zr130  1  0.00005812  0.50076372  0.51754958  1
  Zr  Zr131  1  0.50144620  0.00180710  0.51641262  1
  Zr  Zr132  1  0.74566277  0.74487341  0.63485306  1
  Zr  Zr133  1  0.25179559  0.24418498  0.63754965  1
  Zr  Zr134  1  0.75690370  0.25444871  0.63466173  1
  Zr  Zr135  1  0.24924480  0.75582718  0.63080257  1
  O  O136  1  0.54515262  0.56932147  0.08956818  1
  O  O137  1  0.56236949  0.97471950  0.09962564  1
  O  O138  1  0.74174137  0.84085427  0.12028458  1
  O  O139  1  0.27146373  0.67748354  0.11404972  1
  O  O140  1  0.38267848  0.26218442  0.12569981  1
  O  O141  1  0.64413082  0.26145485  0.11852074  1
  O  O142  1  0.19568363  0.88016661  0.13826626  1
  O  O143  1  0.79073506  0.61993193  0.13737241  1
  O  O144  1  0.09436167  0.11312076  0.14253748  1
  O  O145  1  0.19714990  0.40227374  0.14918596  1
  O  O146  1  0.81754942  0.09966013  0.14861722  1
  O  O147  1  0.91525880  0.38587853  0.13817090  1
  O  O148  1  0.55059524  0.64527765  0.16292296  1
  O  O149  1  0.44201636  0.85559869  0.16149540  1
  O  O150  1  0.94657082  0.86735282  0.17392790  1
  O  O151  1  0.04522691  0.63431632  0.16795880  1
  O  O152  1  0.42083097  0.39457398  0.18875649  1
  O  O153  1  0.31470018  0.11461732  0.18815011  1
  O  O154  1  0.69179983  0.38822458  0.18416100  1
  O  O155  1  0.58465582  0.11089176  0.18435764  1
  O  O156  1  0.28121384  0.61032417  0.19617721  1
  O  O157  1  0.70447370  0.89211901  0.19651800  1
  O  O158  1  0.13807085  0.25872111  0.20805519  1
  O  O159  1  0.87142214  0.25365647  0.20485961  1
  O  O160  1  0.76052324  0.67018753  0.21434428  1
  O  O161  1  0.23029067  0.83182985  0.21091235  1
  O  O162  1  0.08526711  0.98974297  0.23720186  1
  O  O163  1  0.91984816  0.51817069  0.23613564  1
  O  O164  1  0.49421239  0.62394482  0.24227968  1
  O  O165  1  0.50235550  0.88935956  0.24001654  1
  O  O166  1  0.14166939  0.46225269  0.25394298  1
  O  O167  1  0.85940539  0.03541352  0.25401965  1
  O  O168  1  0.35538501  0.33681301  0.26274799  1
  O  O169  1  0.63424539  0.43548151  0.25920808  1
  O  O170  1  0.36506540  0.07168494  0.26172960  1
  O  O171  1  0.64299065  0.16343377  0.26054579  1
  O  O172  1  0.89135340  0.80252309  0.27812602  1
  O  O173  1  0.10862063  0.70023678  0.27855025  1
  O  O174  1  0.10956778  0.20053350  0.28879935  1
  O  O175  1  0.89135366  0.30206596  0.28700889  1
  O  O176  1  0.64378851  0.66543941  0.30386475  1
  O  O177  1  0.36360738  0.56728197  0.30467944  1
  O  O178  1  0.63494394  0.93282079  0.30374278  1
  O  O179  1  0.35716239  0.83793149  0.30432507  1
  O  O180  1  0.85701550  0.53715535  0.31145954  1
  O  O181  1  0.14593287  0.97081769  0.31289163  1
  O  O182  1  0.51127326  0.38536686  0.32363304  1
  O  O183  1  0.49360171  0.11536443  0.32505688  1
  O  O184  1  0.91950503  0.01089783  0.33092532  1
  O  O185  1  0.08031174  0.48673394  0.33018515  1
  O  O186  1  0.24035238  0.33121257  0.35277060  1
  O  O187  1  0.76315460  0.16946936  0.35243914  1
  O  O188  1  0.86715353  0.74003070  0.35771149  1
  O  O189  1  0.13471167  0.75588393  0.35931747  1
  O  O190  1  0.72133258  0.39386167  0.37052882  1
  O  O191  1  0.29164917  0.10806091  0.37173061  1
  O  O192  1  0.58819129  0.60580064  0.37834082  1
  O  O193  1  0.68553520  0.88522608  0.37741706  1
  O  O194  1  0.31957658  0.61458861  0.37862385  1
  O  O195  1  0.41662918  0.89271818  0.37956008  1
  O  O196  1  0.05443717  0.13983181  0.39464835  1
  O  O197  1  0.95181979  0.35704393  0.39548368  1
  O  O198  1  0.45181979  0.35704393  0.40448832  1
  O  O199  1  0.55443717  0.13983181  0.40532365  1
  O  O200  1  0.91662918  0.89271818  0.42041192  1
  O  O201  1  0.81957658  0.61458861  0.42134815  1
  O  O202  1  0.18553520  0.88522608  0.42255494  1
  O  O203  1  0.08819129  0.60580064  0.42163118  1
  O  O204  1  0.79164917  0.10806091  0.42824139  1
  O  O205  1  0.22133258  0.39386167  0.42944218  1
  O  O206  1  0.63471167  0.75588393  0.44065353  1
  O  O207  1  0.36715353  0.74003070  0.44225951  1
  O  O208  1  0.26315460  0.16946936  0.44753286  1
  O  O209  1  0.74035238  0.33121257  0.44720040  1
  O  O210  1  0.58031174  0.48673394  0.46978685  1
  O  O211  1  0.41950503  0.01089783  0.46904568  1
  O  O212  1  0.99360171  0.11536443  0.47491512  1
  O  O213  1  0.01127326  0.38536686  0.47633896  1
  O  O214  1  0.64593287  0.97081769  0.48708037  1
  O  O215  1  0.35701550  0.53715535  0.48851146  1
  O  O216  1  0.85716239  0.83793149  0.49564593  1
  O  O217  1  0.13494394  0.93282079  0.49622922  1
  O  O218  1  0.86360738  0.56728197  0.49529256  1
  O  O219  1  0.14378851  0.66543941  0.49610625  1
  O  O220  1  0.39135366  0.30206596  0.51296311  1
  O  O221  1  0.60956778  0.20053350  0.51117265  1
  O  O222  1  0.60862063  0.70023678  0.52142175  1
  O  O223  1  0.39135340  0.80252309  0.52184598  1
  O  O224  1  0.14299065  0.16343377  0.53942521  1
  O  O225  1  0.86506540  0.07168494  0.53824240  1
  O  O226  1  0.13424539  0.43548151  0.54076392  1
  O  O227  1  0.85538501  0.33681301  0.53722301  1
  O  O228  1  0.35940539  0.03541352  0.54595135  1
  O  O229  1  0.64166939  0.46225269  0.54602902  1
  O  O230  1  0.00235550  0.88935956  0.55995546  1
  O  O231  1  0.99421239  0.62394482  0.55769232  1
  O  O232  1  0.41984816  0.51817069  0.56383636  1
  O  O233  1  0.58526711  0.98974297  0.56277014  1
  O  O234  1  0.73029067  0.83182985  0.58905865  1
  O  O235  1  0.26052324  0.67018753  0.58562772  1
  O  O236  1  0.37142214  0.25365647  0.59511239  1
  O  O237  1  0.63807085  0.25872111  0.59191581  1
  O  O238  1  0.20447370  0.89211901  0.60345300  1
  O  O239  1  0.78121384  0.61032417  0.60379479  1
  O  O240  1  0.08465582  0.11089176  0.61561436  1
  O  O241  1  0.19179983  0.38822458  0.61581100  1
  O  O242  1  0.81470018  0.11461732  0.61182189  1
  O  O243  1  0.92083097  0.39457398  0.61121551  1
  O  O244  1  0.54522691  0.63431632  0.63201320  1
  O  O245  1  0.44657082  0.86735282  0.62604410  1
  O  O246  1  0.94201636  0.85559869  0.63847660  1
  O  O247  1  0.05059524  0.64527765  0.63704904  1
  O  O248  1  0.41525880  0.38587853  0.66180110  1
  O  O249  1  0.31754942  0.09966013  0.65135478  1
  O  O250  1  0.69714990  0.40227374  0.65078604  1
  O  O251  1  0.59436167  0.11312076  0.65743452  1
  O  O252  1  0.29073506  0.61993193  0.66259959  1
  O  O253  1  0.69568363  0.88016661  0.66170474  1
  O  O254  1  0.14413082  0.26145485  0.68145026  1
  O  O255  1  0.88267848  0.26218442  0.67427119  1
  O  O256  1  0.77146373  0.67748354  0.68592228  1
  O  O257  1  0.24174137  0.84085427  0.67968642  1
  O  O258  1  0.06236949  0.97471950  0.70034636  1
  O  O259  1  0.04515262  0.56932147  0.71040282  1
  O  O260  1  0.48130395  0.63055666  0.71807533  1
  O  O261  1  0.49709358  0.87475773  0.70540828  1
  O  O262  1  0.78509978  0.03126639  0.71685670  1
  O  O263  1  0.33919750  0.19312511  0.72057958  1
  O  O264  1  0.71909685  0.35170403  0.72162949  1
  O  O265  1  0.21909685  0.35170403  0.07834251  1
  O  O266  1  0.83919750  0.19312511  0.07939142  1
  O  O267  1  0.28509978  0.03126639  0.08311430  1
  O  O268  1  0.99709358  0.87475773  0.09456372  1
  O  O269  1  0.98130395  0.63055666  0.08189667  1
