# generated using pymatgen
data_Li18La8Zr5O31
_symmetry_space_group_name_H-M   'P 1'
_cell_length_a   12.70453900
_cell_length_b   13.20454200
_cell_length_c   31.80681200
_cell_angle_alpha   90.00000000
_cell_angle_beta   90.00000000
_cell_angle_gamma   90.00000000
_symmetry_Int_Tables_number   1
_chemical_formula_structural   Li18La8Zr5O31
_chemical_formula_sum   'Li72 La32 Zr20 O124'
_cell_volume   5335.83504325
_cell_formula_units_Z   4
loop_
 _symmetry_equiv_pos_site_id
 _symmetry_equiv_pos_as_xyz
  1  'x, y, z'
loop_
 _atom_site_type_symbol
 _atom_site_label
 _atom_site_symmetry_multiplicity
 _atom_site_fract_x
 _atom_site_fract_y
 _atom_site_fract_z
 _atom_site_occupancy
  Li  Li0  1  0.69124472  0.93222831  0.12929575  1
  Li  Li1  1  0.78875202  0.13194445  0.12558792  1
  Li  Li2  1  0.21476469  0.63279750  0.12367875  1
  Li  Li3  1  0.30461544  0.42812262  0.13106455  1
  Li  Li4  1  0.87003105  0.24873480  0.17281459  1
  Li  Li5  1  0.61697827  0.76086934  0.17012367  1
  Li  Li6  1  0.40847139  0.21651619  0.13747232  1
  Li  Li7  1  0.13382880  0.74814952  0.16850680  1
  Li  Li8  1  0.31661414  0.12219993  0.19807989  1
  Li  Li9  1  0.18115844  0.91266835  0.19927341  1
  Li  Li10  1  0.81014626  0.42211266  0.20449521  1
  Li  Li11  1  0.69218307  0.58112823  0.20079742  1
  Li  Li12  1  0.41105327  0.32482479  0.20315824  1
  Li  Li13  1  0.06342564  0.67337600  0.23469104  1
  Li  Li14  1  0.94683933  0.15614985  0.24016003  1
  Li  Li15  1  0.54239760  0.85205376  0.24072697  1
  Li  Li16  1  0.34909219  0.94348723  0.23906225  1
  Li  Li17  1  0.14346557  0.06835048  0.23630750  1
  Li  Li18  1  0.58028732  0.42153449  0.24152017  1
  Li  Li19  1  0.89977427  0.57427117  0.23667558  1
  Li  Li20  1  0.38769426  0.42559154  0.29271197  1
  Li  Li21  1  0.11532855  0.57637280  0.29959915  1
  Li  Li22  1  0.64928033  0.93981635  0.30194491  1
  Li  Li23  1  0.85105267  0.06490353  0.30320466  1
  Li  Li24  1  0.05750988  0.16628734  0.30633828  1
  Li  Li25  1  0.44519244  0.83562245  0.30760614  1
  Li  Li26  1  0.55729073  0.32845519  0.30861404  1
  Li  Li27  1  0.94352717  0.67628771  0.30623482  1
  Li  Li28  1  0.19896792  0.41752177  0.33609130  1
  Li  Li29  1  0.30658587  0.58503385  0.33857858  1
  Li  Li30  1  0.69139376  0.09077791  0.34691520  1
  Li  Li31  1  0.81269232  0.90697063  0.34289820  1
  Li  Li32  1  0.37582723  0.74994763  0.37423625  1
  Li  Li33  1  0.12761623  0.24998199  0.37424332  1
  Li  Li34  1  0.87753267  0.75003074  0.37422848  1
  Li  Li35  1  0.62676081  0.24993739  0.37422782  1
  Li  Li36  1  0.81270894  0.59312025  0.40553400  1
  Li  Li37  1  0.69134901  0.40911420  0.40148563  1
  Li  Li38  1  0.30665349  0.91495293  0.40985045  1
  Li  Li39  1  0.19898656  0.08252439  0.41238791  1
  Li  Li40  1  0.94354305  0.82373929  0.44225678  1
  Li  Li41  1  0.55725849  0.17147978  0.43988944  1
  Li  Li42  1  0.44526931  0.66429516  0.44091235  1
  Li  Li43  1  0.05749916  0.33375472  0.44212021  1
  Li  Li44  1  0.85087538  0.43516434  0.44522876  1
  Li  Li45  1  0.64932549  0.56005772  0.44652156  1
  Li  Li46  1  0.11546144  0.92360827  0.44884531  1
  Li  Li47  1  0.38758673  0.07439266  0.45580955  1
  Li  Li48  1  0.89973733  0.92570114  0.51185103  1
  Li  Li49  1  0.58032153  0.07845034  0.50699462  1
  Li  Li50  1  0.14316999  0.43165386  0.51223796  1
  Li  Li51  1  0.34900307  0.55649300  0.50941445  1
  Li  Li52  1  0.54243274  0.64786497  0.50776494  1
  Li  Li53  1  0.94681192  0.34385102  0.50828727  1
  Li  Li54  1  0.06341889  0.82660981  0.51377423  1
  Li  Li55  1  0.41102280  0.17522052  0.54533900  1
  Li  Li56  1  0.69217297  0.91883981  0.54768576  1
  Li  Li57  1  0.81018583  0.07792646  0.54400050  1
  Li  Li58  1  0.18113579  0.58743237  0.54919163  1
  Li  Li59  1  0.31655539  0.37792680  0.55044006  1
  Li  Li60  1  0.86998511  0.25132356  0.57566572  1
  Li  Li61  1  0.61700025  0.73906833  0.57834960  1
  Li  Li62  1  0.40845206  0.28351258  0.61102332  1
  Li  Li63  1  0.13384890  0.75196387  0.57996828  1
  Li  Li64  1  0.30462189  0.07194478  0.61739920  1
  Li  Li65  1  0.21484679  0.86722799  0.62484558  1
  Li  Li66  1  0.78873659  0.36805338  0.62293728  1
  Li  Li67  1  0.69125771  0.56774610  0.61922937  1
  La  La68  1  0.24990272  0.97305355  0.11673443  1
  La  La69  1  0.75174373  0.46363681  0.11743727  1
  La  La70  1  0.89011758  0.75603480  0.17189009  1
  La  La71  1  0.38391884  0.75763985  0.16885107  1
  La  La72  1  0.62594491  0.25307594  0.17459778  1
  La  La73  1  0.11069831  0.25304710  0.17277587  1
  La  La74  1  0.75290273  0.00340508  0.21603734  1
  La  La75  1  0.24860755  0.51332926  0.21666633  1
  La  La76  1  0.50232457  0.12244454  0.27076365  1
  La  La77  1  0.00346482  0.37973991  0.26889708  1
  La  La78  1  0.50015107  0.62467385  0.26791698  1
  La  La79  1  0.00159951  0.88662704  0.26952395  1
  La  La80  1  0.75251071  0.50277768  0.31793776  1
  La  La81  1  0.25085354  0.00254072  0.32296965  1
  La  La82  1  0.37641800  0.24999731  0.37424540  1
  La  La83  1  0.88096228  0.25000394  0.37423283  1
  La  La84  1  0.12511746  0.74999007  0.37422498  1
  La  La85  1  0.62533430  0.74998644  0.37423021  1
  La  La86  1  0.25085463  0.49747819  0.42550353  1
  La  La87  1  0.75251025  0.99723303  0.43052463  1
  La  La88  1  0.00160446  0.61338271  0.47892102  1
  La  La89  1  0.50016467  0.87532886  0.48054353  1
  La  La90  1  0.00346979  0.12021918  0.47956354  1
  La  La91  1  0.50231572  0.37755367  0.47772367  1
  La  La92  1  0.24858314  0.98665207  0.53181461  1
  La  La93  1  0.75291782  0.49661417  0.53245356  1
  La  La94  1  0.89010639  0.74392485  0.57658882  1
  La  La95  1  0.38395040  0.74237672  0.57962161  1
  La  La96  1  0.62594491  0.24695300  0.57389321  1
  La  La97  1  0.11063409  0.24694026  0.57570675  1
  La  La98  1  0.75173161  0.03635113  0.63105308  1
  La  La99  1  0.24990189  0.52702677  0.63175903  1
  Zr  Zr100  1  0.99176771  0.00298614  0.15515017  1
  Zr  Zr101  1  0.49944093  0.01312824  0.16195275  1
  Zr  Zr102  1  0.49982586  0.50736765  0.15815863  1
  Zr  Zr103  1  0.00901020  0.50125955  0.15641579  1
  Zr  Zr104  1  0.75313397  0.24875759  0.27407893  1
  Zr  Zr105  1  0.74934159  0.75321381  0.26942527  1
  Zr  Zr106  1  0.25415504  0.24721803  0.27005202  1
  Zr  Zr107  1  0.25188096  0.75480094  0.27154023  1
  Zr  Zr108  1  0.49973433  0.50055540  0.37201524  1
  Zr  Zr109  1  0.00205285  0.50051643  0.37295363  1
  Zr  Zr110  1  0.00206153  0.99948449  0.37549871  1
  Zr  Zr111  1  0.49974606  0.99943798  0.37643468  1
  Zr  Zr112  1  0.25190187  0.74520582  0.47691548  1
  Zr  Zr113  1  0.25414422  0.25284995  0.47844889  1
  Zr  Zr114  1  0.74932314  0.74674356  0.47903567  1
  Zr  Zr115  1  0.75310963  0.25125004  0.47438922  1
  Zr  Zr116  1  0.00900688  0.99872696  0.59208302  1
  Zr  Zr117  1  0.49984207  0.99262776  0.59032315  1
  Zr  Zr118  1  0.49945555  0.48686776  0.58656682  1
  Zr  Zr119  1  0.99180456  0.49702784  0.59334285  1
  O  O120  1  0.84347188  0.93282730  0.14799952  1
  O  O121  1  0.65327347  0.06890162  0.14808949  1
  O  O122  1  0.15722492  0.43072055  0.15131171  1
  O  O123  1  0.34661464  0.56834079  0.14717065  1
  O  O124  1  0.34582410  0.93803018  0.17893693  1
  O  O125  1  0.15259097  0.05867332  0.17326377  1
  O  O126  1  0.65169040  0.43809726  0.18321168  1
  O  O127  1  0.84636397  0.55936116  0.17527543  1
  O  O128  1  0.47003863  0.16104413  0.19185172  1
  O  O129  1  0.03806354  0.85040554  0.18775993  1
  O  O130  1  0.96436418  0.35364626  0.19067816  1
  O  O131  1  0.53555826  0.64964737  0.19066208  1
  O  O132  1  0.78403137  0.18984073  0.21282975  1
  O  O133  1  0.72719520  0.79936535  0.20592698  1
  O  O134  1  0.27406270  0.27003249  0.20384521  1
  O  O135  1  0.21882682  0.69755977  0.21038636  1
  O  O136  1  0.94626204  0.02130655  0.22234557  1
  O  O137  1  0.55925134  0.98633086  0.22532712  1
  O  O138  1  0.05162810  0.53158065  0.22441023  1
  O  O139  1  0.43655057  0.46954786  0.22539675  1
  O  O140  1  0.09319771  0.21143428  0.24707754  1
  O  O141  1  0.40379395  0.79332574  0.24809297  1
  O  O142  1  0.60204898  0.28045909  0.25115587  1
  O  O143  1  0.90845971  0.72014622  0.24568627  1
  O  O144  1  0.30347500  0.09429621  0.25758379  1
  O  O145  1  0.19634789  0.90585485  0.25781467  1
  O  O146  1  0.81508528  0.39713767  0.26164583  1
  O  O147  1  0.69593067  0.60472881  0.25913437  1
  O  O148  1  0.20149113  0.39917465  0.27612248  1
  O  O149  1  0.30648685  0.60480870  0.28018546  1
  O  O150  1  0.69940494  0.09696752  0.28614641  1
  O  O151  1  0.80407340  0.90596657  0.28155683  1
  O  O152  1  0.40255875  0.27743307  0.29542188  1
  O  O153  1  0.09740314  0.72088999  0.29319065  1
  O  O154  1  0.90518269  0.20817966  0.29646531  1
  O  O155  1  0.59956632  0.79280014  0.29258028  1
  O  O156  1  0.95464140  0.53250142  0.30951413  1
  O  O157  1  0.55020640  0.47256146  0.30758781  1
  O  O158  1  0.05729142  0.02473255  0.31306875  1
  O  O159  1  0.44546269  0.97690397  0.31413508  1
  O  O160  1  0.71787798  0.30883123  0.33369051  1
  O  O161  1  0.78836448  0.70009174  0.33027747  1
  O  O162  1  0.21422163  0.19335400  0.33041918  1
  O  O163  1  0.28510785  0.80853112  0.33231229  1
  O  O164  1  0.03837248  0.35347894  0.35001314  1
  O  O165  1  0.46809906  0.65015530  0.35000845  1
  O  O166  1  0.53630050  0.14685173  0.35509582  1
  O  O167  1  0.96656787  0.85232542  0.35198177  1
  O  O168  1  0.34666602  0.44454752  0.35739469  1
  O  O169  1  0.15593258  0.55718940  0.35807119  1
  O  O170  1  0.65556057  0.94384853  0.36327268  1
  O  O171  1  0.84801662  0.05152641  0.36315120  1
  O  O172  1  0.84800391  0.44851310  0.38529879  1
  O  O173  1  0.65554434  0.55614366  0.38517999  1
  O  O174  1  0.15597175  0.94281804  0.39036149  1
  O  O175  1  0.34670511  0.05548274  0.39108290  1
  O  O176  1  0.96653984  0.64768175  0.39647232  1
  O  O177  1  0.53626562  0.35308634  0.39330580  1
  O  O178  1  0.46810918  0.84980718  0.39843069  1
  O  O179  1  0.03839951  0.14647073  0.39848770  1
  O  O180  1  0.28513634  0.69137191  0.41616100  1
  O  O181  1  0.21422598  0.30663010  0.41806809  1
  O  O182  1  0.78834387  0.79986966  0.41818354  1
  O  O183  1  0.71787521  0.19115804  0.41479113  1
  O  O184  1  0.44552198  0.52303656  0.43434091  1
  O  O185  1  0.05735045  0.47532117  0.43537824  1
  O  O186  1  0.55025551  0.02738674  0.44086225  1
  O  O187  1  0.95466446  0.96749251  0.43893928  1
  O  O188  1  0.59955564  0.70712683  0.45589032  1
  O  O189  1  0.90514707  0.29189648  0.45199819  1
  O  O190  1  0.09741367  0.77910778  0.45525921  1
  O  O191  1  0.40254869  0.22258633  0.45306103  1
  O  O192  1  0.80411850  0.59397277  0.46690471  1
  O  O193  1  0.69932942  0.40301068  0.46228918  1
  O  O194  1  0.30645353  0.89521014  0.46824752  1
  O  O195  1  0.20150980  0.10084971  0.47237278  1
  O  O196  1  0.69592863  0.89522745  0.48933566  1
  O  O197  1  0.81507695  0.10285839  0.48682745  1
  O  O198  1  0.19635049  0.59418234  0.49065075  1
  O  O199  1  0.30347234  0.40574263  0.49090312  1
  O  O200  1  0.90842395  0.77983720  0.50278705  1
  O  O201  1  0.60203284  0.21952590  0.49732299  1
  O  O202  1  0.40381136  0.70669047  0.50039339  1
  O  O203  1  0.09315593  0.28856368  0.50140771  1
  O  O204  1  0.43653759  0.03043309  0.52306211  1
  O  O205  1  0.05159678  0.96840537  0.52407810  1
  O  O206  1  0.55937441  0.51359629  0.52318932  1
  O  O207  1  0.94645789  0.47868207  0.52615155  1
  O  O208  1  0.21884059  0.80245417  0.53806915  1
  O  O209  1  0.27402510  0.23005378  0.54465993  1
  O  O210  1  0.72717665  0.70052306  0.54252990  1
  O  O211  1  0.78398640  0.31020820  0.53564171  1
  O  O212  1  0.53562312  0.85035999  0.55782525  1
  O  O213  1  0.96429030  0.14634328  0.55782575  1
  O  O214  1  0.03809825  0.64968738  0.56073195  1
  O  O215  1  0.47002646  0.33896087  0.55666220  1
  O  O216  1  0.84635084  0.94058540  0.57322938  1
  O  O217  1  0.65170482  0.06189756  0.56527856  1
  O  O218  1  0.15260206  0.44138956  0.57525314  1
  O  O219  1  0.34586800  0.56197241  0.56954154  1
  O  O220  1  0.34661256  0.93167824  0.60128566  1
  O  O221  1  0.15721276  0.06931245  0.59716619  1
  O  O222  1  0.65328244  0.43109300  0.60043827  1
  O  O223  1  0.84348603  0.56718557  0.60048632  1
  Li  Li224  1  0.09403660  0.69985013  0.64487835  1
  Li  Li225  1  0.91068809  0.20625034  0.64207237  1
  Li  Li226  1  0.91068765  0.29372569  0.10641116  1
  Li  Li227  1  0.09402722  0.80023585  0.10357167  1
  O  O228  1  0.39660636  0.07810977  0.11725690  1
  O  O229  1  0.06973056  0.94321963  0.10483652  1
  O  O230  1  0.59472149  0.54026338  0.10955846  1
  O  O231  1  0.93456515  0.43835734  0.10635602  1
  O  O232  1  0.23860234  0.78873081  0.12326157  1
  O  O233  1  0.76539715  0.28595157  0.12601289  1
  O  O234  1  0.54479439  0.86813188  0.14394163  1
  O  O235  1  0.95327945  0.15348723  0.13877441  1
  O  O236  1  0.04752724  0.65136913  0.13858986  1
  O  O237  1  0.44642431  0.35988132  0.14436290  1
  O  O238  1  0.44641827  0.14011756  0.60411416  1
  O  O239  1  0.04755799  0.84865216  0.60992122  1
  O  O240  1  0.95326701  0.34653718  0.60972373  1
  O  O241  1  0.54481407  0.63185821  0.60456629  1
  O  O242  1  0.76539265  0.21404346  0.62247466  1
  O  O243  1  0.23864323  0.71134195  0.62522238  1
  O  O244  1  0.93455423  0.06160777  0.64214735  1
  O  O245  1  0.59468023  0.95974590  0.63893706  1
  O  O246  1  0.06974612  0.55685326  0.64365201  1
  O  O247  1  0.39659187  0.42193574  0.63125807  1
