# generated using pymatgen
data_Li40La18Zr10O67
_symmetry_space_group_name_H-M   'P 1'
_cell_length_a   11.29297700
_cell_length_b   11.29297737
_cell_length_c   40.01105500
_cell_angle_alpha   90.00000000
_cell_angle_beta   90.00000000
_cell_angle_gamma   111.54263211
_symmetry_Int_Tables_number   1
_chemical_formula_structural   Li40La18Zr10O67
_chemical_formula_sum   'Li80 La36 Zr20 O134'
_cell_volume   4746.21466431
_cell_formula_units_Z   2
loop_
 _symmetry_equiv_pos_site_id
 _symmetry_equiv_pos_as_xyz
  1  'x, y, z'
loop_
 _atom_site_type_symbol
 _atom_site_label
 _atom_site_symmetry_multiplicity
 _atom_site_fract_x
 _atom_site_fract_y
 _atom_site_fract_z
 _atom_site_occupancy
  Li  Li0  1  0.26502841  0.51363921  0.11048489  1
  Li  Li1  1  0.71223596  0.99508319  0.10803573  1
  Li  Li2  1  0.85302332  0.46876218  0.10100264  1
  Li  Li3  1  0.92474507  0.94878266  0.12684475  1
  Li  Li4  1  0.05697543  0.56309665  0.12551355  1
  Li  Li5  1  0.99976288  0.76081092  0.14363189  1
  Li  Li6  1  0.36889553  0.52413585  0.16599250  1
  Li  Li7  1  0.14798379  0.97639928  0.17137855  1
  Li  Li8  1  0.62269078  0.96488698  0.16877238  1
  Li  Li9  1  0.86228084  0.52430410  0.16464315  1
  Li  Li10  1  0.48270016  0.73366641  0.19631754  1
  Li  Li11  1  0.56331004  0.55254297  0.20694301  1
  Li  Li12  1  0.44006735  0.95464991  0.20373904  1
  Li  Li13  1  0.31170836  0.42293088  0.22439488  1
  Li  Li14  1  0.25271641  0.00225862  0.22647303  1
  Li  Li15  1  0.75415881  0.50055340  0.22149428  1
  Li  Li16  1  0.69664498  0.08708172  0.22207767  1
  Li  Li17  1  0.20149801  0.19336865  0.24379929  1
  Li  Li18  1  0.80857918  0.31295165  0.24201265  1
  Li  Li19  1  0.00361369  0.25139025  0.25893386  1
  Li  Li20  1  0.77419370  0.60750833  0.27799112  1
  Li  Li21  1  0.22436538  0.39377689  0.28512133  1
  Li  Li22  1  0.21948992  0.88613441  0.28441451  1
  Li  Li23  1  0.77917225  0.11520218  0.28420282  1
  Li  Li24  1  0.97879869  0.73384945  0.30953337  1
  Li  Li25  1  0.80432570  0.81503879  0.32228211  1
  Li  Li26  1  0.19745934  0.69577112  0.32298352  1
  Li  Li27  1  0.69419401  0.58075752  0.33963875  1
  Li  Li28  1  0.75314505  0.00237567  0.34059417  1
  Li  Li29  1  0.25253622  0.50217891  0.34206395  1
  Li  Li30  1  0.33901577  0.94816449  0.34250528  1
  Li  Li31  1  0.44881390  0.44689647  0.36010773  1
  Li  Li32  1  0.56879083  0.05372985  0.36095436  1
  Li  Li33  1  0.49076167  0.23341025  0.37432223  1
  Li  Li34  1  0.86181489  0.02530529  0.39615345  1
  Li  Li35  1  0.64132768  0.47066394  0.39936178  1
  Li  Li36  1  0.14131998  0.47064576  0.40060931  1
  Li  Li37  1  0.36181018  0.02530365  0.40381753  1
  Li  Li38  1  0.99075723  0.23339922  0.42565112  1
  Li  Li39  1  0.06880177  0.05372058  0.43901610  1
  Li  Li40  1  0.94880068  0.44689094  0.43986369  1
  Li  Li41  1  0.83901581  0.94817029  0.45746542  1
  Li  Li42  1  0.75253069  0.50218085  0.45790790  1
  Li  Li43  1  0.25314426  0.00236604  0.45937570  1
  Li  Li44  1  0.19417949  0.58074893  0.46033198  1
  Li  Li45  1  0.69745371  0.69577211  0.47698686  1
  Li  Li46  1  0.30431870  0.81503088  0.47768745  1
  Li  Li47  1  0.47878957  0.73383665  0.49043584  1
  Li  Li48  1  0.27917631  0.11521036  0.51577406  1
  Li  Li49  1  0.71948379  0.88613274  0.51555505  1
  Li  Li50  1  0.72437596  0.39378256  0.51484586  1
  Li  Li51  1  0.27419130  0.60751340  0.52197971  1
  Li  Li52  1  0.50364507  0.25141126  0.54104057  1
  Li  Li53  1  0.30858448  0.31295956  0.55796072  1
  Li  Li54  1  0.70149844  0.19335652  0.55617599  1
  Li  Li55  1  0.19662083  0.08706453  0.57789631  1
  Li  Li56  1  0.25416494  0.50055674  0.57847818  1
  Li  Li57  1  0.75271850  0.00225372  0.57349684  1
  Li  Li58  1  0.81169199  0.42291136  0.57557699  1
  Li  Li59  1  0.94007044  0.95464396  0.59623400  1
  Li  Li60  1  0.06330826  0.55254347  0.59302812  1
  Li  Li61  1  0.98270886  0.73366714  0.60365186  1
  Li  Li62  1  0.36226677  0.52429479  0.63533220  1
  Li  Li63  1  0.12269723  0.96488878  0.63120378  1
  Li  Li64  1  0.64797569  0.97640092  0.62859474  1
  Li  Li65  1  0.86889601  0.52413267  0.63397351  1
  Li  Li66  1  0.49976892  0.76080875  0.65633936  1
  Li  Li67  1  0.55697369  0.56309213  0.67445855  1
  Li  Li68  1  0.42473011  0.94877686  0.67312593  1
  Li  Li69  1  0.35301060  0.46875546  0.69897085  1
  Li  Li70  1  0.21224533  0.99507411  0.69193524  1
  Li  Li71  1  0.76503175  0.51364032  0.68948186  1
  La  La72  1  0.82143720  0.69722639  0.08355007  1
  La  La73  1  0.17262761  0.80486764  0.08233271  1
  La  La74  1  0.49645257  0.74605596  0.11547859  1
  La  La75  1  0.02487924  0.25179612  0.11179559  1
  La  La76  1  0.57518011  0.44322870  0.13264811  1
  La  La77  1  0.43353078  0.06250636  0.12456323  1
  La  La78  1  0.94519815  0.06961527  0.19714807  1
  La  La79  1  0.06392038  0.43684503  0.19601845  1
  La  La80  1  0.99947980  0.75269776  0.22610603  1
  La  La81  1  0.50749395  0.25144329  0.22201128  1
  La  La82  1  0.68644831  0.82200953  0.25384931  1
  La  La83  1  0.31303575  0.68643550  0.25452214  1
  La  La84  1  0.31823779  0.19082079  0.31225903  1
  La  La85  1  0.68842401  0.31542736  0.31318826  1
  La  La86  1  0.00437957  0.25159527  0.34201063  1
  La  La87  1  0.50216888  0.75083334  0.34141315  1
  La  La88  1  0.06978777  0.93631728  0.36964958  1
  La  La89  1  0.94028158  0.56361319  0.37090466  1
  La  La90  1  0.44027872  0.56361175  0.42906587  1
  La  La91  1  0.56978471  0.93632085  0.43032194  1
  La  La92  1  0.50438102  0.25159417  0.45796060  1
  La  La93  1  0.00216714  0.75083780  0.45855712  1
  La  La94  1  0.18842030  0.31542584  0.48678312  1
  La  La95  1  0.81823308  0.19082316  0.48771260  1
  La  La96  1  0.81303130  0.68643570  0.54544868  1
  La  La97  1  0.18644763  0.82201259  0.54612161  1
  La  La98  1  0.49948237  0.75269548  0.57386539  1
  La  La99  1  0.00748155  0.25144535  0.57795976  1
  La  La100  1  0.56391136  0.43685326  0.60395562  1
  La  La101  1  0.44518710  0.06961744  0.60282241  1
  La  La102  1  0.93352503  0.06249611  0.67541390  1
  La  La103  1  0.07517221  0.44322330  0.66732650  1
  La  La104  1  0.99644768  0.74604607  0.68449420  1
  La  La105  1  0.52486662  0.25178657  0.68817713  1
  La  La106  1  0.67262037  0.80485926  0.71763954  1
  La  La107  1  0.32143013  0.69722363  0.71642214  1
  Zr  Zr108  1  0.75260946  0.75805563  0.16916294  1
  Zr  Zr109  1  0.26391790  0.25123582  0.16587601  1
  Zr  Zr110  1  0.75000379  0.24586214  0.15959288  1
  Zr  Zr111  1  0.24544200  0.75012877  0.16787187  1
  Zr  Zr112  1  0.00377375  0.00387939  0.28384200  1
  Zr  Zr113  1  0.50134387  0.50260059  0.28187366  1
  Zr  Zr114  1  0.50154664  0.00320355  0.28200681  1
  Zr  Zr115  1  0.00004645  0.50063927  0.28332273  1
  Zr  Zr116  1  0.25470518  0.25112572  0.39983870  1
  Zr  Zr117  1  0.75386024  0.75060141  0.39934600  1
  Zr  Zr118  1  0.25386235  0.75059352  0.40062455  1
  Zr  Zr119  1  0.75470385  0.25112676  0.40013203  1
  Zr  Zr120  1  0.50004538  0.50063138  0.51665010  1
  Zr  Zr121  1  0.00154421  0.00320812  0.51796407  1
  Zr  Zr122  1  0.00134242  0.50260498  0.51809765  1
  Zr  Zr123  1  0.50376679  0.00387128  0.51612869  1
  Zr  Zr124  1  0.74544698  0.75013516  0.63210030  1
  Zr  Zr125  1  0.24999623  0.24586097  0.64037810  1
  Zr  Zr126  1  0.76390565  0.25123471  0.63409807  1
  Zr  Zr127  1  0.25260709  0.75804782  0.63080861  1
  O  O128  1  0.73381679  0.83341433  0.11930756  1
  O  O129  1  0.25241400  0.67144895  0.11805753  1
  O  O130  1  0.38067268  0.25761632  0.12508115  1
  O  O131  1  0.63391251  0.24402571  0.11890532  1
  O  O132  1  0.20194808  0.88491997  0.13866645  1
  O  O133  1  0.80273304  0.63039239  0.13905975  1
  O  O134  1  0.09361764  0.10958196  0.14501960  1
  O  O135  1  0.18899370  0.39030348  0.14472259  1
  O  O136  1  0.82564358  0.11209125  0.13878966  1
  O  O137  1  0.91708672  0.39469431  0.13811801  1
  O  O138  1  0.55808714  0.64684202  0.16538798  1
  O  O139  1  0.44291827  0.85108970  0.16408832  1
  O  O140  1  0.95169463  0.86821743  0.17392266  1
  O  O141  1  0.04791083  0.63703721  0.17170396  1
  O  O142  1  0.42071741  0.39343954  0.18860050  1
  O  O143  1  0.31623511  0.11407338  0.18886678  1
  O  O144  1  0.69519564  0.38896502  0.18284622  1
  O  O145  1  0.59138431  0.11166192  0.18492880  1
  O  O146  1  0.28529697  0.60613955  0.19534336  1
  O  O147  1  0.72408711  0.90683874  0.19660895  1
  O  O148  1  0.14149631  0.26456465  0.20747514  1
  O  O149  1  0.86666530  0.24379011  0.20371871  1
  O  O150  1  0.76418398  0.67427249  0.21528103  1
  O  O151  1  0.23205842  0.83111352  0.21405379  1
  O  O152  1  0.08529317  0.99351033  0.23677343  1
  O  O153  1  0.91913507  0.51193844  0.23619268  1
  O  O154  1  0.49326382  0.62331694  0.24145920  1
  O  O155  1  0.50213992  0.88435323  0.24125445  1
  O  O156  1  0.14235282  0.46606899  0.25423559  1
  O  O157  1  0.86602913  0.04621794  0.25480190  1
  O  O158  1  0.35600058  0.33938782  0.26251042  1
  O  O159  1  0.63443503  0.43813869  0.25788865  1
  O  O160  1  0.36976666  0.07469540  0.26142036  1
  O  O161  1  0.64683293  0.16708428  0.26087998  1
  O  O162  1  0.89269151  0.80624945  0.27815084  1
  O  O163  1  0.10719701  0.70047834  0.27942098  1
  O  O164  1  0.11179186  0.20315307  0.28912776  1
  O  O165  1  0.89176476  0.30317725  0.28791411  1
  O  O166  1  0.64469082  0.66820984  0.30315417  1
  O  O167  1  0.36516175  0.56964564  0.30452459  1
  O  O168  1  0.63940562  0.93706259  0.30370439  1
  O  O169  1  0.35898876  0.83978820  0.30463275  1
  O  O170  1  0.85614217  0.53884498  0.31123152  1
  O  O171  1  0.14937557  0.97402173  0.31273689  1
  O  O172  1  0.51359412  0.38709173  0.32300626  1
  O  O173  1  0.49576960  0.11615977  0.32513831  1
  O  O174  1  0.92229563  0.01253335  0.33123999  1
  O  O175  1  0.08122172  0.48831176  0.33069797  1
  O  O176  1  0.24329845  0.33286768  0.35279269  1
  O  O177  1  0.76566689  0.17032658  0.35258159  1
  O  O178  1  0.86807216  0.74094719  0.35724997  1
  O  O179  1  0.13486837  0.75629114  0.35995359  1
  O  O180  1  0.72405375  0.39458183  0.37063508  1
  O  O181  1  0.29452224  0.10895019  0.37164205  1
  O  O182  1  0.59028132  0.60701246  0.37788695  1
  O  O183  1  0.68746952  0.88666362  0.37726280  1
  O  O184  1  0.32175096  0.61637740  0.37868263  1
  O  O185  1  0.41872565  0.89396786  0.37983019  1
  O  O186  1  0.05714864  0.14088315  0.39459926  1
  O  O187  1  0.95452173  0.35802728  0.39579898  1
  O  O188  1  0.45452779  0.35803012  0.40417151  1
  O  O189  1  0.55714256  0.14088669  0.40537206  1
  O  O190  1  0.91872507  0.89396606  0.42014287  1
  O  O191  1  0.82174048  0.61637782  0.42128723  1
  O  O192  1  0.18746407  0.88665611  0.42270710  1
  O  O193  1  0.09028096  0.60700795  0.42208339  1
  O  O194  1  0.79452167  0.10895332  0.42832662  1
  O  O195  1  0.22405462  0.39457881  0.42933620  1
  O  O196  1  0.63486175  0.75629245  0.44001727  1
  O  O197  1  0.36806520  0.74093090  0.44272190  1
  O  O198  1  0.26567116  0.17032294  0.44738754  1
  O  O199  1  0.74329729  0.33286836  0.44717844  1
  O  O200  1  0.58122536  0.48831156  0.46927549  1
  O  O201  1  0.42229598  0.01252487  0.46872928  1
  O  O202  1  0.99576353  0.11616144  0.47483082  1
  O  O203  1  0.01358767  0.38709324  0.47696539  1
  O  O204  1  0.64937957  0.97403018  0.48723359  1
  O  O205  1  0.35613315  0.53883317  0.48874055  1
  O  O206  1  0.85898657  0.83979336  0.49533873  1
  O  O207  1  0.13939633  0.93706215  0.49626351  1
  O  O208  1  0.86515610  0.56963858  0.49544810  1
  O  O209  1  0.14469002  0.66821398  0.49681609  1
  O  O210  1  0.39176208  0.30317284  0.51205925  1
  O  O211  1  0.61179325  0.20315406  0.51084381  1
  O  O212  1  0.60719284  0.70047323  0.52054934  1
  O  O213  1  0.39268779  0.80624655  0.52181949  1
  O  O214  1  0.14682946  0.16708645  0.53909323  1
  O  O215  1  0.86976841  0.07469771  0.53855157  1
  O  O216  1  0.13443363  0.43813752  0.54208390  1
  O  O217  1  0.85600730  0.33938507  0.53746228  1
  O  O218  1  0.36601946  0.04619911  0.54516801  1
  O  O219  1  0.64235062  0.46605956  0.54573554  1
  O  O220  1  0.00214482  0.88436411  0.55871696  1
  O  O221  1  0.99326474  0.62332440  0.55851168  1
  O  O222  1  0.41914036  0.51193616  0.56378171  1
  O  O223  1  0.58528969  0.99349604  0.56319595  1
  O  O224  1  0.73206443  0.83111421  0.58591807  1
  O  O225  1  0.26418550  0.67427348  0.58468903  1
  O  O226  1  0.36665519  0.24378570  0.59625336  1
  O  O227  1  0.64148128  0.26456440  0.59249793  1
  O  O228  1  0.22407706  0.90683488  0.60336315  1
  O  O229  1  0.78529151  0.60614578  0.60462806  1
  O  O230  1  0.09136922  0.11165613  0.61504386  1
  O  O231  1  0.19519369  0.38897083  0.61712848  1
  O  O232  1  0.81621584  0.11408087  0.61110231  1
  O  O233  1  0.92070276  0.39343489  0.61137235  1
  O  O234  1  0.54790820  0.63704358  0.62826922  1
  O  O235  1  0.45168668  0.86821570  0.62604920  1
  O  O236  1  0.94292139  0.85108445  0.63588671  1
  O  O237  1  0.05808172  0.64683778  0.63458242  1
  O  O238  1  0.41707944  0.39468848  0.66185108  1
  O  O239  1  0.32562903  0.11208290  0.66118100  1
  O  O240  1  0.68898768  0.39030660  0.65525027  1
  O  O241  1  0.59359872  0.10957800  0.65495428  1
  O  O242  1  0.30271871  0.63038451  0.66091374  1
  O  O243  1  0.70195524  0.88493389  0.66130468  1
  O  O244  1  0.13391123  0.24403415  0.68106888  1
  O  O245  1  0.88066212  0.25760768  0.67489093  1
  O  O246  1  0.75241408  0.67145227  0.68191421  1
  O  O247  1  0.23381117  0.83340650  0.68066395  1
  O  O248  1  0.03754736  0.94916058  0.70245580  1
  O  O249  1  0.93400455  0.52679124  0.69568927  1
  O  O250  1  0.48857485  0.62292110  0.71284618  1
  O  O251  1  0.50327330  0.87624609  0.70692690  1
  O  O252  1  0.19941910  0.47927507  0.71872895  1
  O  O253  1  0.78416818  0.02135386  0.72143270  1
  O  O254  1  0.66378446  0.26264424  0.72680740  1
  O  O255  1  0.16379922  0.26267264  0.07316423  1
  O  O256  1  0.28416739  0.02136489  0.07854344  1
  O  O257  1  0.69942749  0.47927759  0.08124556  1
  O  O258  1  0.00327630  0.87624532  0.09304483  1
  O  O259  1  0.98858045  0.62292487  0.08712416  1
  O  O260  1  0.43400615  0.52680089  0.10428565  1
  O  O261  1  0.53755216  0.94916834  0.09751848  1
  Li  Li262  1  0.64849420  0.01672506  0.68862146  1
  Li  Li263  1  0.82773672  0.35117910  0.70786072  1
  Li  Li264  1  0.72571575  0.13990456  0.73989444  1
  Li  Li265  1  0.14540131  0.30802852  0.72373212  1
  Li  Li266  1  0.64541880  0.30803242  0.07624324  1
  Li  Li267  1  0.22572024  0.13992109  0.06007764  1
  Li  Li268  1  0.32776005  0.35119196  0.09211221  1
  Li  Li269  1  0.14849853  0.01673283  0.11135055  1
