# generated using pymatgen
data_Li7La3Zr2O12
_symmetry_space_group_name_H-M   'P 1'
_cell_length_a   11.29297700
_cell_length_b   11.29297737
_cell_length_c   40.01105500
_cell_angle_alpha   90.00000000
_cell_angle_beta   90.00000000
_cell_angle_gamma   111.54263211
_symmetry_Int_Tables_number   1
_chemical_formula_structural   Li7La3Zr2O12
_chemical_formula_sum   'Li84 La36 Zr24 O144'
_cell_volume   4746.21466431
_cell_formula_units_Z   12
loop_
 _symmetry_equiv_pos_site_id
 _symmetry_equiv_pos_as_xyz
  1  'x, y, z'
loop_
 _atom_site_type_symbol
 _atom_site_label
 _atom_site_symmetry_multiplicity
 _atom_site_fract_x
 _atom_site_fract_y
 _atom_site_fract_z
 _atom_site_occupancy
  Li  Li0  1  0.57102954  0.92107167  0.05845751  1
  Li  Li1  1  0.84206944  0.59208663  0.05619949  1
  Li  Li2  1  0.40620743  0.56396599  0.07442389  1
  Li  Li3  1  0.59619021  0.54732764  0.09578127  1
  Li  Li4  1  0.41285265  0.95105776  0.09342547  1
  Li  Li5  1  0.28750822  0.37138583  0.10300190  1
  Li  Li6  1  0.21626441  0.98774698  0.09428358  1
  Li  Li7  1  0.76726242  0.49286373  0.10678519  1
  Li  Li8  1  0.67175367  0.06203519  0.10375216  1
  Li  Li9  1  0.19042841  0.18220379  0.13078120  1
  Li  Li10  1  0.80779193  0.30098501  0.13309347  1
  Li  Li11  1  0.01110868  0.24493450  0.14344702  1
  Li  Li12  1  0.76363321  0.60510267  0.16179504  1
  Li  Li13  1  0.22519439  0.39343093  0.16804851  1
  Li  Li14  1  0.22790932  0.93389698  0.15012289  1
  Li  Li15  1  0.77928028  0.10663134  0.16651599  1
  Li  Li16  1  0.95186659  0.72069910  0.19321573  1
  Li  Li17  1  0.78801820  0.81145990  0.20401139  1
  Li  Li18  1  0.18471551  0.78476244  0.19771059  1
  Li  Li19  1  0.67852332  0.56976681  0.22255956  1
  Li  Li20  1  0.74700100  0.00146494  0.22331118  1
  Li  Li21  1  0.24455783  0.50935008  0.22464217  1
  Li  Li22  1  0.34563123  0.96118617  0.22222268  1
  Li  Li23  1  0.44146397  0.45111498  0.24312450  1
  Li  Li24  1  0.56231199  0.05592365  0.24339667  1
  Li  Li25  1  0.49846723  0.24923553  0.25999774  1
  Li  Li26  1  0.85608213  0.02351351  0.27874821  1
  Li  Li27  1  0.63891685  0.47364932  0.28418769  1
  Li  Li28  1  0.13352951  0.46788563  0.28337610  1
  Li  Li29  1  0.35907520  0.02614995  0.28492033  1
  Li  Li30  1  0.98255211  0.22841996  0.31013099  1
  Li  Li31  1  0.06372597  0.05251854  0.32212487  1
  Li  Li32  1  0.94510425  0.44601679  0.32323173  1
  Li  Li33  1  0.82975326  0.94348276  0.33950580  1
  Li  Li34  1  0.74872264  0.50054841  0.34174878  1
  Li  Li35  1  0.24933868  0.00138429  0.34092644  1
  Li  Li36  1  0.19591134  0.58820416  0.34211419  1
  Li  Li37  1  0.69379530  0.69660780  0.35975455  1
  Li  Li38  1  0.30058144  0.81730174  0.36075259  1
  Li  Li39  1  0.48114916  0.73902080  0.37431795  1
  Li  Li40  1  0.27259230  0.10988369  0.39654225  1
  Li  Li41  1  0.71785905  0.88882143  0.39959471  1
  Li  Li42  1  0.71785905  0.38882143  0.40037629  1
  Li  Li43  1  0.27259230  0.60988369  0.40342975  1
  Li  Li44  1  0.48114916  0.23902080  0.42565405  1
  Li  Li45  1  0.30058144  0.31730174  0.43921941  1
  Li  Li46  1  0.69379530  0.19660780  0.44021645  1
  Li  Li47  1  0.19591134  0.08820416  0.45785781  1
  Li  Li48  1  0.24933868  0.50138529  0.45904556  1
  Li  Li49  1  0.74872264  0.00054841  0.45822322  1
  Li  Li50  1  0.82975326  0.44348276  0.46046620  1
  Li  Li51  1  0.94510425  0.94601679  0.47674027  1
  Li  Li52  1  0.06372597  0.55251854  0.47784713  1
  Li  Li53  1  0.98255211  0.72841996  0.48984101  1
  Li  Li54  1  0.35907520  0.52614995  0.51505067  1
  Li  Li55  1  0.13352951  0.96788563  0.51659590  1
  Li  Li56  1  0.63891685  0.97364932  0.51578431  1
  Li  Li57  1  0.85608213  0.52351351  0.52122279  1
  Li  Li58  1  0.49846723  0.74923553  0.53997426  1
  Li  Li59  1  0.56231199  0.55592465  0.55657533  1
  Li  Li60  1  0.44146397  0.95111498  0.55684750  1
  Li  Li61  1  0.34563123  0.46118617  0.57774932  1
  Li  Li62  1  0.24455783  0.00935008  0.57532983  1
  Li  Li63  1  0.74700200  0.50146594  0.57666082  1
  Li  Li64  1  0.67852332  0.06976681  0.57741144  1
  Li  Li65  1  0.18471551  0.28476244  0.60226041  1
  Li  Li66  1  0.78801820  0.31145990  0.59596061  1
  Li  Li67  1  0.95186659  0.22069910  0.60675627  1
  Li  Li68  1  0.77928028  0.60663134  0.63345601  1
  Li  Li69  1  0.22790932  0.43389698  0.64984811  1
  Li  Li70  1  0.22519439  0.89343093  0.63192249  1
  Li  Li71  1  0.76363321  0.10510267  0.63817696  1
  Li  Li72  1  0.01110868  0.74493450  0.65652498  1
  Li  Li73  1  0.80779193  0.80098501  0.66687853  1
  Li  Li74  1  0.19042841  0.68220379  0.66919080  1
  Li  Li75  1  0.67175367  0.56203519  0.69621984  1
  Li  Li76  1  0.76726142  0.99286273  0.69318681  1
  Li  Li77  1  0.21626441  0.48774698  0.70568842  1
  Li  Li78  1  0.28750822  0.87138583  0.69697010  1
  Li  Li79  1  0.41285265  0.45105776  0.70654653  1
  Li  Li80  1  0.59619021  0.04732764  0.70419073  1
  Li  Li81  1  0.40620743  0.06396599  0.72554811  1
  Li  Li82  1  0.84206944  0.09208663  0.74377151  1
  Li  Li83  1  0.57102954  0.42107167  0.74151449  1
  La  La84  1  0.96005895  0.06257959  0.08052224  1
  La  La85  1  0.05524070  0.44481712  0.08290223  1
  La  La86  1  0.99329908  0.75165246  0.11143515  1
  La  La87  1  0.50253707  0.26952220  0.10624148  1
  La  La88  1  0.68872426  0.81842307  0.12733483  1
  La  La89  1  0.31357203  0.68313351  0.13647765  1
  La  La90  1  0.31467369  0.19948337  0.19848757  1
  La  La91  1  0.68612620  0.30966533  0.19792674  1
  La  La92  1  0.99873517  0.24888357  0.22642828  1
  La  La93  1  0.49602636  0.75275734  0.22260542  1
  La  La94  1  0.06686025  0.93423847  0.25321783  1
  La  La95  1  0.93333375  0.56165095  0.25454639  1
  La  La96  1  0.43696555  0.56629059  0.31207109  1
  La  La97  1  0.56183790  0.93531798  0.31341469  1
  La  La98  1  0.49843429  0.25199779  0.34228926  1
  La  La99  1  0.99816569  0.75043640  0.34116767  1
  La  La100  1  0.18338148  0.31773772  0.36981788  1
  La  La101  1  0.81049380  0.18721847  0.37135538  1
  La  La102  1  0.81049280  0.68721847  0.42861662  1
  La  La103  1  0.18338148  0.81773772  0.43015412  1
  La  La104  1  0.49843429  0.75199779  0.45768274  1
  La  La105  1  0.99816569  0.25043640  0.45880433  1
  La  La106  1  0.56183790  0.43531798  0.48655631  1
  La  La107  1  0.43696555  0.06629059  0.48789991  1
  La  La108  1  0.93333375  0.06165095  0.54542461  1
  La  La109  1  0.06686025  0.43423847  0.54675317  1
  La  La110  1  0.99873517  0.74888357  0.57354372  1
  La  La111  1  0.49602636  0.25275734  0.57736658  1
  La  La112  1  0.68612620  0.80966533  0.60204526  1
  La  La113  1  0.31467369  0.69948337  0.60148443  1
  La  La114  1  0.31357303  0.18313351  0.66349435  1
  La  La115  1  0.68872426  0.31842307  0.67263717  1
  La  La116  1  0.99329908  0.25165246  0.68853685  1
  La  La117  1  0.50253707  0.76952220  0.69373052  1
  La  La118  1  0.05524070  0.94481712  0.71706877  1
  La  La119  1  0.96005895  0.56257959  0.71944876  1
  Zr  Zr120  1  0.72653435  0.25378529  0.04282671  1
  Zr  Zr121  1  0.21408415  0.77299906  0.05800263  1
  Zr  Zr122  1  -0.00011691  -0.00015962  0.16918886  1
  Zr  Zr123  1  0.49711505  0.50520607  0.16446644  1
  Zr  Zr124  1  0.50586799  0.00499620  0.16195503  1
  Zr  Zr125  1  0.00070825  0.49696387  0.16970980  1
  Zr  Zr126  1  0.25080160  0.25297283  0.28399941  1
  Zr  Zr127  1  0.74826288  0.74979036  0.28127541  1
  Zr  Zr128  1  0.24940589  0.74998883  0.28148980  1
  Zr  Zr129  1  0.74791842  0.24819028  0.28451445  1
  Zr  Zr130  1  0.49798046  0.50230570  0.39964432  1
  Zr  Zr131  1  0.99782485  0.00156157  0.39940685  1
  Zr  Zr132  1  0.99782485  0.50156157  0.40056515  1
  Zr  Zr133  1  0.49798046  0.00230570  0.40032668  1
  Zr  Zr134  1  0.74791842  0.74819028  0.51545755  1
  Zr  Zr135  1  0.24940589  0.24998883  0.51848220  1
  Zr  Zr136  1  0.74826288  0.24979036  0.51869659  1
  Zr  Zr137  1  0.25080160  0.75297283  0.51597259  1
  Zr  Zr138  1  0.00070825  0.99696387  0.63026220  1
  Zr  Zr139  1  0.50586799  0.50499620  0.63801697  1
  Zr  Zr140  1  0.49711505  0.00520607  0.63550556  1
  Zr  Zr141  1  -0.00011691  0.49984038  0.63078214  1
  Zr  Zr142  1  0.21408415  0.27299906  0.74196937  1
  Zr  Zr143  1  0.72653435  0.75378529  0.75714529  1
  O  O144  1  0.11066760  0.89119682  0.05942986  1
  O  O145  1  0.02120400  0.62312962  0.06066963  1
  O  O146  1  0.44201915  0.40774371  0.07816876  1
  O  O147  1  0.39352126  0.87390555  0.04715703  1
  O  O148  1  0.72843785  0.40894556  0.06214384  1
  O  O149  1  0.59513963  0.13100232  0.06854410  1
  O  O150  1  0.25727856  0.60458691  0.07680299  1
  O  O151  1  0.74367324  0.94741399  0.07833546  1
  O  O152  1  0.10747387  0.25348085  0.09780236  1
  O  O153  1  0.88701564  0.24240060  0.05543952  1
  O  O154  1  0.77982620  0.66695484  0.09655213  1
  O  O155  1  0.23771185  0.82475730  0.10723588  1
  O  O156  1  0.09211201  0.99177609  0.12383504  1
  O  O157  1  0.90957011  0.47169290  0.12223069  1
  O  O158  1  0.49654922  0.62555566  0.12190997  1
  O  O159  1  0.52231385  0.90068657  0.12030162  1
  O  O160  1  0.14459240  0.47311572  0.14018092  1
  O  O161  1  0.88231464  0.05841776  0.13639504  1
  O  O162  1  0.35131867  0.33222743  0.14624431  1
  O  O163  1  0.63248093  0.44589678  0.13889619  1
  O  O164  1  0.37729513  0.07034157  0.13116546  1
  O  O165  1  0.65390361  0.17071674  0.14359500  1
  O  O166  1  0.88146138  0.80752255  0.16137176  1
  O  O167  1  0.08313198  0.69238189  0.16234677  1
  O  O168  1  0.11260152  0.19957350  0.17559769  1
  O  O169  1  0.89269743  0.29339826  0.17436527  1
  O  O170  1  0.63688956  0.66441599  0.18601204  1
  O  O171  1  0.36241858  0.56653789  0.18708405  1
  O  O172  1  0.63958637  0.94017690  0.18487653  1
  O  O173  1  0.36027847  0.84663991  0.18354990  1
  O  O174  1  0.84567569  0.53133408  0.19490490  1
  O  O175  1  0.15525277  0.96697778  0.19445462  1
  O  O176  1  0.51296676  0.39068971  0.20596665  1
  O  O177  1  0.48955047  0.11626528  0.20501842  1
  O  O178  1  0.91887166  0.00941469  0.21574348  1
  O  O179  1  0.06635118  0.47419430  0.21746572  1
  O  O180  1  0.24441614  0.33700815  0.23675265  1
  O  O181  1  0.75611309  0.16664620  0.23694329  1
  O  O182  1  0.86199294  0.73938501  0.23943169  1
  O  O183  1  0.12623373  0.75280359  0.24224991  1
  O  O184  1  0.71154664  0.38817007  0.25500912  1
  O  O185  1  0.29137306  0.11291003  0.25471130  1
  O  O186  1  0.58554754  0.60561762  0.26111801  1
  O  O187  1  0.68042690  0.88368981  0.25914089  1
  O  O188  1  0.32270497  0.61808851  0.26161036  1
  O  O189  1  0.41251257  0.89520622  0.26039500  1
  O  O190  1  0.05390133  0.14127057  0.27844301  1
  O  O191  1  0.94547741  0.35457097  0.28065936  1
  O  O192  1  0.45032668  0.36048718  0.28882610  1
  O  O193  1  0.54909560  0.13851650  0.28879515  1
  O  O194  1  0.91481119  0.89244962  0.30236825  1
  O  O195  1  0.81548696  0.61432823  0.30413319  1
  O  O196  1  0.18415269  0.88794422  0.30400317  1
  O  O197  1  0.08642640  0.60727986  0.30441077  1
  O  O198  1  0.78583415  0.10333087  0.31192334  1
  O  O199  1  0.21946775  0.39705609  0.31260880  1
  O  O200  1  0.63216304  0.75914006  0.32275084  1
  O  O201  1  0.36216212  0.74400573  0.32486744  1
  O  O202  1  0.26036877  0.17069846  0.33111515  1
  O  O203  1  0.73442456  0.32816306  0.33165228  1
  O  O204  1  0.57940588  0.49044723  0.35266761  1
  O  O205  1  0.41655593  0.01340314  0.35300108  1
  O  O206  1  0.98855812  0.11525995  0.35725658  1
  O  O207  1  0.00278169  0.38133955  0.36018319  1
  O  O208  1  0.64081054  0.97069354  0.37086818  1
  O  O209  1  0.35563707  0.54207021  0.37128838  1
  O  O210  1  0.85431477  0.83839754  0.37758222  1
  O  O211  1  0.13396364  0.93525297  0.37741902  1
  O  O212  1  0.86375963  0.56956221  0.37843982  1
  O  O213  1  0.14076643  0.66644563  0.37965144  1
  O  O214  1  0.38751425  0.30446621  0.39464222  1
  O  O215  1  0.60503811  0.20173076  0.39608049  1
  O  O216  1  0.60503811  0.70173076  0.40389151  1
  O  O217  1  0.38751425  0.80446621  0.40532978  1
  O  O218  1  0.14076643  0.16644563  0.42032056  1
  O  O219  1  0.86375963  0.06956221  0.42153218  1
  O  O220  1  0.13396364  0.43525297  0.42255298  1
  O  O221  1  0.85431477  0.33839754  0.42238978  1
  O  O222  1  0.35563707  0.04207021  0.42868362  1
  O  O223  1  0.64081054  0.47069354  0.42910282  1
  O  O224  1  0.00278169  0.88133955  0.43978781  1
  O  O225  1  0.98855812  0.61525995  0.44271442  1
  O  O226  1  0.41655593  0.51340314  0.44697092  1
  O  O227  1  0.57940588  0.99044723  0.44730339  1
  O  O228  1  0.73442456  0.82816306  0.46831972  1
  O  O229  1  0.26036877  0.67069846  0.46885585  1
  O  O230  1  0.36216212  0.24400573  0.47510456  1
  O  O231  1  0.63216304  0.25914006  0.47722116  1
  O  O232  1  0.21946775  0.89705609  0.48736320  1
  O  O233  1  0.78583415  0.60333087  0.48804766  1
  O  O234  1  0.08642640  0.10727986  0.49556023  1
  O  O235  1  0.18415269  0.38794422  0.49596883  1
  O  O236  1  0.81548696  0.11432823  0.49583881  1
  O  O237  1  0.91481119  0.39244962  0.49760275  1
  O  O238  1  0.54909560  0.63851650  0.51117685  1
  O  O239  1  0.45032668  0.86048718  0.51114590  1
  O  O240  1  0.94547741  0.85457097  0.51931264  1
  O  O241  1  0.05390133  0.64127057  0.52152899  1
  O  O242  1  0.41251257  0.39520622  0.53957600  1
  O  O243  1  0.32270497  0.11808851  0.53836164  1
  O  O244  1  0.68042690  0.38368981  0.54083111  1
  O  O245  1  0.58554754  0.10561762  0.53885299  1
  O  O246  1  0.29137306  0.61291003  0.54525970  1
  O  O247  1  0.71154664  0.88817007  0.54496288  1
  O  O248  1  0.12623373  0.25280359  0.55772209  1
  O  O249  1  0.86199294  0.23938501  0.56054031  1
  O  O250  1  0.75611309  0.66664620  0.56302871  1
  O  O251  1  0.24441614  0.83700815  0.56321935  1
  O  O252  1  0.06635118  0.97419430  0.58250528  1
  O  O253  1  0.91887166  0.50941469  0.58422852  1
  O  O254  1  0.48955047  0.61626528  0.59495358  1
  O  O255  1  0.51296676  0.89068971  0.59400435  1
  O  O256  1  0.15525277  0.46697778  0.60551638  1
  O  O257  1  0.84567569  0.03133408  0.60506710  1
  O  O258  1  0.36027847  0.34663991  0.61642210  1
  O  O259  1  0.63958637  0.44017690  0.61509547  1
  O  O260  1  0.36241858  0.06653789  0.61288795  1
  O  O261  1  0.63688956  0.16441599  0.61395996  1
  O  O262  1  0.89269743  0.79339826  0.62560673  1
  O  O263  1  0.11260152  0.69957350  0.62437431  1
  O  O264  1  0.08313198  0.19238189  0.63762523  1
  O  O265  1  0.88146138  0.30752255  0.63860024  1
  O  O266  1  0.65390361  0.67071674  0.65637700  1
  O  O267  1  0.37729513  0.57034157  0.66880654  1
  O  O268  1  0.63248093  0.94589678  0.66107581  1
  O  O269  1  0.35131867  0.83222743  0.65372769  1
  O  O270  1  0.88231464  0.55841776  0.66357696  1
  O  O271  1  0.14459240  0.97311572  0.65979008  1
  O  O272  1  0.52231385  0.40068657  0.67966938  1
  O  O273  1  0.49654922  0.12555566  0.67806103  1
  O  O274  1  0.90957011  0.97169290  0.67774131  1
  O  O275  1  0.09211201  0.49177609  0.67613596  1
  O  O276  1  0.23771185  0.32475730  0.69273612  1
  O  O277  1  0.77982620  0.16695484  0.70341887  1
  O  O278  1  0.88701564  0.74240060  0.74453248  1
  O  O279  1  0.10747387  0.75348085  0.70216964  1
  O  O280  1  0.74367324  0.44741399  0.72163654  1
  O  O281  1  0.25727856  0.10458691  0.72316801  1
  O  O282  1  0.59513963  0.63100232  0.73142690  1
  O  O283  1  0.72843785  0.90894556  0.73782816  1
  O  O284  1  0.39352126  0.37390555  0.75281497  1
  O  O285  1  0.44201915  0.90774371  0.72180224  1
  O  O286  1  0.02120400  0.12312962  0.73930237  1
  O  O287  1  0.11066760  0.39119682  0.74054214  1
