# generated using pymatgen
data_Li18La8Zr5O31
_symmetry_space_group_name_H-M   'P 1'
_cell_length_a   12.70453900
_cell_length_b   13.20454200
_cell_length_c   31.80681200
_cell_angle_alpha   90.00000000
_cell_angle_beta   90.00000000
_cell_angle_gamma   90.00000000
_symmetry_Int_Tables_number   1
_chemical_formula_structural   Li18La8Zr5O31
_chemical_formula_sum   'Li72 La32 Zr20 O124'
_cell_volume   5335.83504325
_cell_formula_units_Z   4
loop_
 _symmetry_equiv_pos_site_id
 _symmetry_equiv_pos_as_xyz
  1  'x, y, z'
loop_
 _atom_site_type_symbol
 _atom_site_label
 _atom_site_symmetry_multiplicity
 _atom_site_fract_x
 _atom_site_fract_y
 _atom_site_fract_z
 _atom_site_occupancy
  Li  Li0  1  0.69466487  0.93010568  0.12912668  1
  Li  Li1  1  0.78810200  0.13575236  0.12720115  1
  Li  Li2  1  0.19614203  0.58838377  0.12886599  1
  Li  Li3  1  0.31184008  0.42738470  0.13145819  1
  Li  Li4  1  0.87375747  0.25052606  0.17387912  1
  Li  Li5  1  0.61490261  0.75211702  0.16557454  1
  Li  Li6  1  0.37532505  0.24126924  0.14804003  1
  Li  Li7  1  0.13087104  0.74291424  0.16694823  1
  Li  Li8  1  0.32374647  0.11546385  0.19644731  1
  Li  Li9  1  0.16882971  0.90370662  0.19574744  1
  Li  Li10  1  0.80124221  0.42687084  0.20529080  1
  Li  Li11  1  0.69420787  0.58827071  0.20134392  1
  Li  Li12  1  0.42090221  0.33716902  0.20985317  1
  Li  Li13  1  0.06313255  0.67200809  0.23376437  1
  Li  Li14  1  0.95581279  0.15640004  0.23929576  1
  Li  Li15  1  0.54947530  0.83555886  0.23542653  1
  Li  Li16  1  0.34124704  0.94650563  0.23605631  1
  Li  Li17  1  0.14716335  0.06171582  0.23776850  1
  Li  Li18  1  0.58931309  0.42670415  0.24216140  1
  Li  Li19  1  0.90150072  0.57002200  0.23934367  1
  Li  Li20  1  0.38984872  0.42422078  0.29467786  1
  Li  Li21  1  0.11305787  0.57603745  0.29912561  1
  Li  Li22  1  0.64540282  0.93514183  0.29995457  1
  Li  Li23  1  0.85727571  0.06859997  0.30273117  1
  Li  Li24  1  0.06056917  0.16517267  0.30663634  1
  Li  Li25  1  0.44695432  0.84017270  0.30337346  1
  Li  Li26  1  0.55973898  0.32846803  0.30812283  1
  Li  Li27  1  0.94220355  0.67519078  0.30688872  1
  Li  Li28  1  0.19836709  0.41709724  0.33701664  1
  Li  Li29  1  0.30567171  0.58469034  0.33862309  1
  Li  Li30  1  0.69307398  0.08893842  0.34512087  1
  Li  Li31  1  0.81074605  0.90805878  0.34202024  1
  Li  Li32  1  0.37578227  0.74997182  0.37424344  1
  Li  Li33  1  0.12866499  0.24999366  0.37423421  1
  Li  Li34  1  0.87551916  0.74996057  0.37421540  1
  Li  Li35  1  0.62774815  0.24998709  0.37424249  1
  Li  Li36  1  0.81075410  0.59195629  0.40649406  1
  Li  Li37  1  0.69315782  0.41107949  0.40330922  1
  Li  Li38  1  0.30566838  0.91525412  0.40983530  1
  Li  Li39  1  0.19839523  0.08286910  0.41145913  1
  Li  Li40  1  0.94220094  0.82477756  0.44157527  1
  Li  Li41  1  0.55968440  0.17151277  0.44038164  1
  Li  Li42  1  0.44683585  0.65984439  0.44509952  1
  Li  Li43  1  0.06057527  0.33484724  0.44182804  1
  Li  Li44  1  0.85723635  0.43144222  0.44575962  1
  Li  Li45  1  0.64537452  0.56473147  0.44857369  1
  Li  Li46  1  0.11302032  0.92396134  0.44935236  1
  Li  Li47  1  0.38984214  0.07574782  0.45381077  1
  Li  Li48  1  0.90145229  0.92996364  0.50919293  1
  Li  Li49  1  0.58938369  0.07328396  0.50630121  1
  Li  Li50  1  0.14710372  0.43822790  0.51076622  1
  Li  Li51  1  0.34116990  0.55353021  0.51245373  1
  Li  Li52  1  0.54938598  0.66435063  0.51299575  1
  Li  Li53  1  0.95584438  0.34355944  0.50914911  1
  Li  Li54  1  0.06311245  0.82800095  0.51472113  1
  Li  Li55  1  0.42093985  0.16281195  0.53857462  1
  Li  Li56  1  0.69429740  0.91193267  0.54711160  1
  Li  Li57  1  0.80137826  0.07328637  0.54318905  1
  Li  Li58  1  0.16880954  0.59633080  0.55277089  1
  Li  Li59  1  0.32381786  0.38451681  0.55198924  1
  Li  Li60  1  0.87379547  0.24954126  0.57460007  1
  Li  Li61  1  0.61490320  0.74777740  0.58281866  1
  Li  Li62  1  0.37526928  0.25871160  0.60037933  1
  Li  Li63  1  0.13084703  0.75709722  0.58154792  1
  Li  Li64  1  0.31183757  0.07269553  0.61701954  1
  Li  Li65  1  0.19611095  0.91173439  0.61961219  1
  Li  Li66  1  0.78809306  0.36429011  0.62130477  1
  Li  Li67  1  0.69464987  0.56992860  0.61934209  1
  La  La68  1  0.23517388  0.00489015  0.11680890  1
  La  La69  1  0.75223962  0.46585252  0.11758718  1
  La  La70  1  0.88760882  0.74882451  0.17168291  1
  La  La71  1  0.37331450  0.75998560  0.16657288  1
  La  La72  1  0.62063803  0.25673946  0.17225926  1
  La  La73  1  0.12813745  0.24336993  0.16769821  1
  La  La74  1  0.75970801  0.00658118  0.21749233  1
  La  La75  1  0.24932896  0.51024550  0.21831678  1
  La  La76  1  0.50275334  0.12439229  0.27437035  1
  La  La77  1  0.00574461  0.37631222  0.26761492  1
  La  La78  1  0.49817930  0.62438665  0.26890298  1
  La  La79  1  0.99985902  0.88357509  0.26975148  1
  La  La80  1  0.75305180  0.50127255  0.31882215  1
  La  La81  1  0.25131440  0.00161787  0.32286220  1
  La  La82  1  0.37534269  0.25000676  0.37424391  1
  La  La83  1  0.88137107  0.24998296  0.37423055  1
  La  La84  1  0.12469343  0.74997155  0.37423777  1
  La  La85  1  0.62442325  0.74997718  0.37425017  1
  La  La86  1  0.25128861  0.49837784  0.42563046  1
  La  La87  1  0.75308454  0.99876394  0.42964468  1
  La  La88  1  0.99987989  0.61638758  0.47873015  1
  La  La89  1  0.49818998  0.87561250  0.47958850  1
  La  La90  1  0.00574505  0.12367570  0.48084883  1
  La  La91  1  0.50276027  0.37561248  0.47409999  1
  La  La92  1  0.24931875  0.98974249  0.53016243  1
  La  La93  1  0.75976515  0.49340966  0.53100114  1
  La  La94  1  0.88759327  0.75116314  0.57679624  1
  La  La95  1  0.37330777  0.73999381  0.58192867  1
  La  La96  1  0.62063998  0.24329492  0.57621742  1
  La  La97  1  0.12814473  0.25654641  0.58079422  1
  La  La98  1  0.75221607  0.03427914  0.63089946  1
  La  La99  1  0.23517884  0.49501570  0.63167498  1
  Zr  Zr100  1  0.98465108  0.00108404  0.15560036  1
  Zr  Zr101  1  0.51471186  0.00439254  0.17041967  1
  Zr  Zr102  1  0.50242232  0.51551017  0.16009211  1
  Zr  Zr103  1  0.00660435  0.49399753  0.15849039  1
  Zr  Zr104  1  0.75413458  0.24967665  0.27251068  1
  Zr  Zr105  1  0.74838111  0.74897310  0.26918876  1
  Zr  Zr106  1  0.25461850  0.24694923  0.26962289  1
  Zr  Zr107  1  0.25068775  0.75610512  0.27055123  1
  Zr  Zr108  1  0.50080702  0.50107956  0.37226303  1
  Zr  Zr109  1  0.00190222  0.50037525  0.37295774  1
  Zr  Zr110  1  0.00193299  0.99960065  0.37549706  1
  Zr  Zr111  1  0.50081429  0.99891540  0.37622607  1
  Zr  Zr112  1  0.25066511  0.74390295  0.47794160  1
  Zr  Zr113  1  0.25459539  0.25304722  0.47885414  1
  Zr  Zr114  1  0.74839510  0.75101198  0.47928580  1
  Zr  Zr115  1  0.75412356  0.25035221  0.47594965  1
  Zr  Zr116  1  0.00656356  0.00605066  0.58998690  1
  Zr  Zr117  1  0.50240148  0.98455580  0.58838779  1
  Zr  Zr118  1  0.51473096  0.49561697  0.57805488  1
  Zr  Zr119  1  0.98466370  0.49886807  0.59288370  1
  O  O120  1  0.83968138  0.92648260  0.14931519  1
  O  O121  1  0.65681480  0.06648234  0.14875877  1
  O  O122  1  0.16290103  0.44450317  0.14988375  1
  O  O123  1  0.34855274  0.57151720  0.14722395  1
  O  O124  1  0.35480210  0.96500411  0.17427007  1
  O  O125  1  0.13915678  0.04721638  0.17729702  1
  O  O126  1  0.65285648  0.44118166  0.18363204  1
  O  O127  1  0.84607585  0.55587044  0.17665062  1
  O  O128  1  0.46872022  0.15477368  0.18437400  1
  O  O129  1  0.03063325  0.84499876  0.18743372  1
  O  O130  1  0.97213832  0.35073996  0.19068880  1
  O  O131  1  0.53051524  0.65466362  0.19298199  1
  O  O132  1  0.78210995  0.19115607  0.21171519  1
  O  O133  1  0.72133545  0.78471569  0.20548652  1
  O  O134  1  0.28341045  0.28241025  0.20586249  1
  O  O135  1  0.21648357  0.69583598  0.21003178  1
  O  O136  1  0.94170676  0.02022171  0.22410927  1
  O  O137  1  0.56469014  0.97854189  0.22876856  1
  O  O138  1  0.05342340  0.52879691  0.22654261  1
  O  O139  1  0.44041952  0.47538362  0.22788325  1
  O  O140  1  0.10033909  0.20750872  0.24743095  1
  O  O141  1  0.39913269  0.79965845  0.24509215  1
  O  O142  1  0.59983307  0.28112065  0.24970357  1
  O  O143  1  0.90674662  0.71653509  0.24653482  1
  O  O144  1  0.30829830  0.09455035  0.25691365  1
  O  O145  1  0.19420946  0.90653140  0.25551531  1
  O  O146  1  0.81549722  0.39750012  0.26127729  1
  O  O147  1  0.69374468  0.59968140  0.26018707  1
  O  O148  1  0.20241067  0.39839477  0.27768836  1
  O  O149  1  0.30563552  0.60713894  0.28049470  1
  O  O150  1  0.70135156  0.09780569  0.28509906  1
  O  O151  1  0.80178873  0.90204733  0.28078904  1
  O  O152  1  0.40524081  0.27680560  0.29592950  1
  O  O153  1  0.09653489  0.72167553  0.29298833  1
  O  O154  1  0.90698515  0.20979801  0.29499600  1
  O  O155  1  0.59684696  0.78949320  0.29168580  1
  O  O156  1  0.95353320  0.53134920  0.30985041  1
  O  O157  1  0.55128417  0.47114945  0.30901691  1
  O  O158  1  0.05728865  0.02344758  0.31278352  1
  O  O159  1  0.44558453  0.97867484  0.31402169  1
  O  O160  1  0.71776906  0.30739342  0.33277231  1
  O  O161  1  0.78620453  0.69754593  0.33071720  1
  O  O162  1  0.21688911  0.19164191  0.33096133  1
  O  O163  1  0.28445815  0.80976356  0.33154738  1
  O  O164  1  0.03842155  0.35305826  0.35093284  1
  O  O165  1  0.46750447  0.64878427  0.35058010  1
  O  O166  1  0.53765111  0.14706344  0.35307585  1
  O  O167  1  0.96543611  0.85210378  0.35194671  1
  O  O168  1  0.34728441  0.44450030  0.35777209  1
  O  O169  1  0.15553937  0.55746485  0.35820147  1
  O  O170  1  0.65527409  0.94342401  0.36183170  1
  O  O171  1  0.84807174  0.05296589  0.36228712  1
  O  O172  1  0.84805126  0.44704863  0.38618793  1
  O  O173  1  0.65525948  0.55659298  0.38665492  1
  O  O174  1  0.15555813  0.94252019  0.39026346  1
  O  O175  1  0.34730680  0.05548160  0.39073834  1
  O  O176  1  0.96541094  0.64785508  0.39650549  1
  O  O177  1  0.53761020  0.35289538  0.39540858  1
  O  O178  1  0.46754311  0.85117210  0.39789852  1
  O  O179  1  0.03844799  0.14690571  0.39750855  1
  O  O180  1  0.28455480  0.69014890  0.41696883  1
  O  O181  1  0.21683812  0.30835647  0.41752187  1
  O  O182  1  0.78620244  0.80230360  0.41772895  1
  O  O183  1  0.71776666  0.19257237  0.41569919  1
  O  O184  1  0.44566008  0.52132831  0.43448270  1
  O  O185  1  0.05729356  0.47658108  0.43567496  1
  O  O186  1  0.55131592  0.02882868  0.43947737  1
  O  O187  1  0.95355491  0.96862214  0.43860577  1
  O  O188  1  0.59683197  0.71052821  0.45681243  1
  O  O189  1  0.90698760  0.29021026  0.45345173  1
  O  O190  1  0.09653488  0.77829612  0.45547438  1
  O  O191  1  0.40522877  0.22317116  0.45256806  1
  O  O192  1  0.80183236  0.59790802  0.46771661  1
  O  O193  1  0.70134078  0.40219919  0.46334345  1
  O  O194  1  0.30561392  0.89285856  0.46797510  1
  O  O195  1  0.20238133  0.10159964  0.47079138  1
  O  O196  1  0.69383308  0.90031292  0.48828189  1
  O  O197  1  0.81550745  0.10251684  0.48717788  1
  O  O198  1  0.19416689  0.59348354  0.49298760  1
  O  O199  1  0.30826340  0.40545141  0.49155873  1
  O  O200  1  0.90676018  0.78346942  0.50195160  1
  O  O201  1  0.59985333  0.21888653  0.49878018  1
  O  O202  1  0.39911436  0.70035708  0.50341580  1
  O  O203  1  0.10032327  0.29246794  0.50104560  1
  O  O204  1  0.44043783  0.02460711  0.52058083  1
  O  O205  1  0.05345013  0.97122311  0.52193732  1
  O  O206  1  0.56476248  0.52143725  0.51970959  1
  O  O207  1  0.94180327  0.47971317  0.52436538  1
  O  O208  1  0.21644163  0.80414653  0.53845448  1
  O  O209  1  0.28345162  0.21762376  0.54261068  1
  O  O210  1  0.72140092  0.71518342  0.54298582  1
  O  O211  1  0.78214103  0.30885133  0.53674336  1
  O  O212  1  0.53057176  0.84538959  0.55552503  1
  O  O213  1  0.97206314  0.14924497  0.55776395  1
  O  O214  1  0.03060122  0.65498208  0.56107628  1
  O  O215  1  0.46873167  0.34525684  0.56411198  1
  O  O216  1  0.84609578  0.94417437  0.57181631  1
  O  O217  1  0.65291122  0.05888210  0.56484385  1
  O  O218  1  0.13919489  0.45279887  0.57120654  1
  O  O219  1  0.35481859  0.53497254  0.57420721  1
  O  O220  1  0.34851154  0.92853300  0.60124393  1
  O  O221  1  0.16287689  0.05560644  0.59860517  1
  O  O222  1  0.65681935  0.43354265  0.59972639  1
  O  O223  1  0.83966683  0.57343948  0.59914172  1
  Li  Li224  1  0.09802441  0.68364457  0.64419197  1
  Li  Li225  1  0.90883809  0.20796857  0.64193339  1
  Li  Li226  1  0.90884519  0.29218754  0.10657676  1
  Li  Li227  1  0.09805933  0.81625482  0.10428069  1
  O  O228  1  0.06420855  0.95447328  0.10347048  1
  O  O229  1  0.60009168  0.55530694  0.11290017  1
  O  O230  1  0.93251153  0.43623344  0.10701528  1
  O  O231  1  0.23161258  0.81321747  0.12949475  1
  O  O232  1  0.25669185  0.17486811  0.12396941  1
  O  O233  1  0.76200857  0.28746216  0.12531514  1
  O  O234  1  0.54754553  0.86634610  0.14348252  1
  O  O235  1  0.94735879  0.15009907  0.13962100  1
  O  O236  1  0.04456269  0.64458183  0.14066271  1
  O  O237  1  0.45301419  0.36633031  0.14806790  1
  O  O238  1  0.45300011  0.13372911  0.60037111  1
  O  O239  1  0.04455922  0.85547597  0.60779915  1
  O  O240  1  0.94738721  0.34986489  0.60888591  1
  O  O241  1  0.54749640  0.63368437  0.60500293  1
  O  O242  1  0.76197894  0.21264881  0.62319317  1
  O  O243  1  0.25664064  0.32501149  0.62451933  1
  O  O244  1  0.23157715  0.68667999  0.61897869  1
  O  O245  1  0.93251183  0.06390514  0.64145319  1
  O  O246  1  0.59996064  0.94506738  0.63564688  1
  O  O247  1  0.06419406  0.54544653  0.64502278  1
