# generated using pymatgen
data_Li38La16Zr10O63
_symmetry_space_group_name_H-M   'P 1'
_cell_length_a   12.70453900
_cell_length_b   13.20454200
_cell_length_c   31.80681200
_cell_angle_alpha   90.00000000
_cell_angle_beta   90.00000000
_cell_angle_gamma   90.00000000
_symmetry_Int_Tables_number   1
_chemical_formula_structural   Li38La16Zr10O63
_chemical_formula_sum   'Li76 La32 Zr20 O126'
_cell_volume   5335.83504325
_cell_formula_units_Z   2
loop_
 _symmetry_equiv_pos_site_id
 _symmetry_equiv_pos_as_xyz
  1  'x, y, z'
loop_
 _atom_site_type_symbol
 _atom_site_label
 _atom_site_symmetry_multiplicity
 _atom_site_fract_x
 _atom_site_fract_y
 _atom_site_fract_z
 _atom_site_occupancy
  Li  Li0  1  0.70448594  0.89811208  0.12747395  1
  Li  Li1  1  0.81241601  0.07049803  0.12632649  1
  Li  Li2  1  0.20496130  0.56332366  0.12666388  1
  Li  Li3  1  0.30089739  0.34059400  0.14097297  1
  Li  Li4  1  0.86954611  0.24108819  0.16630951  1
  Li  Li5  1  0.63396833  0.75450157  0.17082837  1
  Li  Li6  1  0.41495718  0.19761947  0.12610353  1
  Li  Li7  1  0.09673287  0.67964258  0.19718219  1
  Li  Li8  1  0.32779366  0.15855910  0.19310394  1
  Li  Li9  1  0.18367859  0.88227949  0.19738641  1
  Li  Li10  1  0.81517189  0.40747879  0.19746727  1
  Li  Li11  1  0.67483801  0.58509035  0.20116979  1
  Li  Li12  1  0.42994458  0.32546058  0.20839225  1
  Li  Li13  1  0.01026190  0.62603131  0.26281698  1
  Li  Li14  1  0.94775684  0.15124771  0.23722416  1
  Li  Li15  1  0.54988171  0.84507135  0.23874666  1
  Li  Li16  1  0.34818231  0.95228977  0.23049651  1
  Li  Li17  1  0.16062894  0.05933992  0.23638590  1
  Li  Li18  1  0.58968026  0.42565449  0.23785630  1
  Li  Li19  1  0.84463249  0.56538994  0.24016737  1
  Li  Li20  1  0.39293251  0.42266465  0.29367022  1
  Li  Li21  1  0.15715172  0.56754999  0.29677308  1
  Li  Li22  1  0.64223112  0.93947453  0.30309673  1
  Li  Li23  1  0.85243337  0.06449379  0.30235046  1
  Li  Li24  1  0.05501598  0.16624744  0.30465116  1
  Li  Li25  1  0.44338592  0.84236602  0.30428434  1
  Li  Li26  1  0.55611858  0.32500523  0.30407471  1
  Li  Li27  1  0.92718220  0.67220031  0.32147811  1
  Li  Li28  1  0.19936030  0.41100299  0.33809465  1
  Li  Li29  1  0.31286796  0.58656822  0.33768041  1
  Li  Li30  1  0.68740724  0.09448899  0.34450034  1
  Li  Li31  1  0.80808190  0.91296612  0.34508388  1
  Li  Li32  1  0.37379191  0.75345290  0.37250931  1
  Li  Li33  1  0.12638470  0.25207513  0.37476012  1
  Li  Li34  1  0.87223752  0.75933059  0.37611212  1
  Li  Li35  1  0.62760459  0.25444630  0.37396615  1
  Li  Li36  1  0.81325041  0.59293014  0.40025962  1
  Li  Li37  1  0.69393176  0.41049539  0.40377430  1
  Li  Li38  1  0.30555041  0.91766020  0.40954609  1
  Li  Li39  1  0.19778373  0.08468406  0.41233666  1
  Li  Li40  1  0.94124523  0.83228024  0.44209945  1
  Li  Li41  1  0.55989147  0.17408311  0.43780738  1
  Li  Li42  1  0.44380112  0.66470799  0.44060129  1
  Li  Li43  1  0.05721685  0.34056542  0.44494399  1
  Li  Li44  1  0.86283015  0.43567116  0.44418076  1
  Li  Li45  1  0.65370725  0.56695339  0.44342866  1
  Li  Li46  1  0.11336038  0.92443958  0.44814447  1
  Li  Li47  1  0.38942323  0.07916244  0.45518861  1
  Li  Li48  1  0.89887149  0.93234568  0.50885563  1
  Li  Li49  1  0.57591465  0.08396369  0.50773597  1
  Li  Li50  1  0.16434667  0.44222714  0.51209859  1
  Li  Li51  1  0.35478577  0.55338777  0.51207190  1
  Li  Li52  1  0.54670561  0.65598897  0.50687166  1
  Li  Li53  1  0.95044968  0.34671634  0.51350990  1
  Li  Li54  1  0.05880502  0.82646283  0.51419067  1
  Li  Li55  1  0.40974504  0.16218516  0.54627110  1
  Li  Li56  1  0.68926202  0.92733427  0.54365589  1
  Li  Li57  1  0.80731515  0.08401616  0.54868958  1
  Li  Li58  1  0.17868107  0.60545800  0.54940283  1
  Li  Li59  1  0.33492134  0.37628534  0.55598420  1
  Li  Li60  1  0.87399334  0.25668603  0.57928773  1
  Li  Li61  1  0.62936737  0.74966077  0.57542198  1
  Li  Li62  1  0.37739326  0.26653836  0.61647971  1
  Li  Li63  1  0.12818486  0.75836924  0.57999202  1
  Li  Li64  1  0.30105661  0.07196006  0.61832331  1
  Li  Li65  1  0.19049188  0.90768193  0.61996201  1
  Li  Li66  1  0.79820790  0.38734959  0.61776842  1
  Li  Li67  1  0.70748792  0.60819816  0.61636594  1
  La  La68  1  0.25607526  0.02504239  0.11646731  1
  La  La69  1  0.74858040  0.50725334  0.11834583  1
  La  La70  1  0.87238070  0.73860386  0.17137592  1
  La  La71  1  0.39225216  0.75210382  0.17055091  1
  La  La72  1  0.62971818  0.25848604  0.16735517  1
  La  La73  1  0.11155231  0.23870178  0.16941843  1
  La  La74  1  0.74390507  0.00301989  0.21818046  1
  La  La75  1  0.25442121  0.49049358  0.21472688  1
  La  La76  1  0.49951917  0.12119745  0.26498162  1
  La  La77  1  0.00201450  0.38023444  0.26607966  1
  La  La78  1  0.49738986  0.62450306  0.26790661  1
  La  La79  1  0.99804765  0.87867180  0.26954415  1
  La  La80  1  0.74586405  0.49475115  0.31828986  1
  La  La81  1  0.25053278  0.00228398  0.32186147  1
  La  La82  1  0.37618443  0.24843477  0.37350103  1
  La  La83  1  0.87937688  0.24963792  0.37398019  1
  La  La84  1  0.12495761  0.75120814  0.37186142  1
  La  La85  1  0.62085271  0.75323852  0.37413956  1
  La  La86  1  0.25028251  0.49982356  0.42470181  1
  La  La87  1  0.74945498  0.00251213  0.43081685  1
  La  La88  1  0.99865133  0.61991918  0.47772506  1
  La  La89  1  0.49701862  0.87735664  0.48004493  1
  La  La90  1  0.00343483  0.12668542  0.48172132  1
  La  La91  1  0.50272219  0.37763670  0.47159129  1
  La  La92  1  0.24368226  0.98700796  0.53041555  1
  La  La93  1  0.75040269  0.49762607  0.52771781  1
  La  La94  1  0.88021879  0.75730286  0.57782974  1
  La  La95  1  0.37389012  0.74331157  0.58066865  1
  La  La96  1  0.62480372  0.24678686  0.58270602  1
  La  La97  1  0.12511837  0.26324704  0.58306482  1
  La  La98  1  0.74372871  0.96731880  0.63130284  1
  La  La99  1  0.23736311  0.50561175  0.63175902  1
  Zr  Zr100  1  0.00134597  0.98726726  0.16152102  1
  Zr  Zr101  1  0.51074978  0.99908973  0.15557311  1
  Zr  Zr102  1  0.49197810  0.50339923  0.15637457  1
  Zr  Zr103  1  0.00835341  0.49484596  0.15693888  1
  Zr  Zr104  1  0.75220606  0.24924676  0.26978423  1
  Zr  Zr105  1  0.74799664  0.75612834  0.27275665  1
  Zr  Zr106  1  0.25229745  0.25002494  0.27037742  1
  Zr  Zr107  1  0.25055799  0.75850325  0.26799135  1
  Zr  Zr108  1  0.49945945  0.50048842  0.37129850  1
  Zr  Zr109  1  0.00358668  0.49868697  0.36970545  1
  Zr  Zr110  1  0.00137613  0.00277440  0.37508092  1
  Zr  Zr111  1  0.49809289  0.00305332  0.37620937  1
  Zr  Zr112  1  0.25022909  0.74502690  0.47593389  1
  Zr  Zr113  1  0.25432669  0.25680935  0.47997885  1
  Zr  Zr114  1  0.74906699  0.74916164  0.47671223  1
  Zr  Zr115  1  0.75302616  0.25259675  0.47826909  1
  Zr  Zr116  1  0.00062705  0.00713297  0.59076802  1
  Zr  Zr117  1  0.49244715  0.98817108  0.59004452  1
  Zr  Zr118  1  0.51852847  0.50839857  0.58390860  1
  Zr  Zr119  1  0.99401481  0.51083383  0.58558343  1
  O  O120  1  0.86327338  0.92465261  0.13074173  1
  O  O121  1  0.66881300  0.04330766  0.14756362  1
  O  O122  1  0.15927801  0.42933972  0.14879223  1
  O  O123  1  0.34445442  0.57568076  0.15097359  1
  O  O124  1  0.34736212  0.93282804  0.16922776  1
  O  O125  1  0.14735839  0.04957528  0.17723944  1
  O  O126  1  0.64546459  0.45088173  0.17964520  1
  O  O127  1  0.85355278  0.55127343  0.17998951  1
  O  O128  1  0.47646108  0.15085057  0.18452065  1
  O  O129  1  0.03090846  0.83832884  0.18918144  1
  O  O130  1  0.96666088  0.35076411  0.18836444  1
  O  O131  1  0.53660026  0.65094141  0.19166445  1
  O  O132  1  0.78392758  0.19068775  0.20993282  1
  O  O133  1  0.72392704  0.81398951  0.21044955  1
  O  O134  1  0.28060569  0.30058945  0.20778909  1
  O  O135  1  0.22807282  0.73589759  0.20311273  1
  O  O136  1  0.93566682  0.01081822  0.22238095  1
  O  O137  1  0.55230067  0.97928227  0.22308202  1
  O  O138  1  0.06968512  0.53677491  0.22357323  1
  O  O139  1  0.44188698  0.47077959  0.22600335  1
  O  O140  1  0.09724986  0.20860908  0.24643453  1
  O  O141  1  0.40752236  0.79173566  0.24666069  1
  O  O142  1  0.59900019  0.28192794  0.24565024  1
  O  O143  1  0.89752367  0.71303955  0.25057723  1
  O  O144  1  0.30685519  0.10150809  0.25264174  1
  O  O145  1  0.19616917  0.91105064  0.25672373  1
  O  O146  1  0.80969352  0.39875359  0.25755897  1
  O  O147  1  0.69629613  0.60441481  0.25912236  1
  O  O148  1  0.19769665  0.40086343  0.27899284  1
  O  O149  1  0.30123990  0.60632352  0.27730032  1
  O  O150  1  0.69454006  0.09704050  0.28324072  1
  O  O151  1  0.80206019  0.90608502  0.28504949  1
  O  O152  1  0.40453039  0.27611248  0.29445324  1
  O  O153  1  0.10099530  0.71793956  0.29304460  1
  O  O154  1  0.90279539  0.20903058  0.29322312  1
  O  O155  1  0.59493720  0.79323448  0.29447678  1
  O  O156  1  0.94821180  0.53191181  0.30600257  1
  O  O157  1  0.55010310  0.46997287  0.30763921  1
  O  O158  1  0.05426320  0.02443092  0.31249925  1
  O  O159  1  0.44555388  0.98345903  0.31347880  1
  O  O160  1  0.71467658  0.30663299  0.33054781  1
  O  O161  1  0.77905106  0.70129641  0.33418578  1
  O  O162  1  0.21612057  0.19428360  0.33103044  1
  O  O163  1  0.28588225  0.81336009  0.32938913  1
  O  O164  1  0.03630304  0.35178452  0.34740413  1
  O  O165  1  0.46320652  0.64795508  0.34946815  1
  O  O166  1  0.53674605  0.15077858  0.35764061  1
  O  O167  1  0.96511447  0.85453571  0.35232644  1
  O  O168  1  0.34855928  0.44237696  0.35634060  1
  O  O169  1  0.15922114  0.55277441  0.35742525  1
  O  O170  1  0.65311603  0.94834178  0.36345386  1
  O  O171  1  0.84612108  0.05703464  0.36289130  1
  O  O172  1  0.84799743  0.44458566  0.38359741  1
  O  O173  1  0.65469637  0.55332864  0.38398424  1
  O  O174  1  0.15512649  0.94529738  0.38943668  1
  O  O175  1  0.34497641  0.05807566  0.39091900  1
  O  O176  1  0.96380533  0.64937174  0.38624478  1
  O  O177  1  0.53852587  0.35547291  0.39616195  1
  O  O178  1  0.46388968  0.85360652  0.39793670  1
  O  O179  1  0.03644580  0.14990646  0.39777252  1
  O  O180  1  0.28295822  0.69335869  0.41469307  1
  O  O181  1  0.21324698  0.31456932  0.41876313  1
  O  O182  1  0.78574407  0.81137157  0.41723370  1
  O  O183  1  0.71682665  0.19822446  0.41685915  1
  O  O184  1  0.44248546  0.52435069  0.43284171  1
  O  O185  1  0.04918848  0.48065905  0.43300692  1
  O  O186  1  0.54831953  0.03119204  0.44114863  1
  O  O187  1  0.95357420  0.97436407  0.43931798  1
  O  O188  1  0.59719612  0.70798418  0.45301291  1
  O  O189  1  0.90574729  0.29176907  0.45513288  1
  O  O190  1  0.09394476  0.77863521  0.45373678  1
  O  O191  1  0.40307503  0.22608269  0.45165516  1
  O  O192  1  0.80643010  0.60023557  0.46087381  1
  O  O193  1  0.69963865  0.40740373  0.46375129  1
  O  O194  1  0.30154249  0.89588860  0.46770192  1
  O  O195  1  0.19951326  0.10613531  0.47231098  1
  O  O196  1  0.68952787  0.89601008  0.48767874  1
  O  O197  1  0.81074495  0.10461796  0.48981835  1
  O  O198  1  0.19723301  0.59288931  0.48997508  1
  O  O199  1  0.31541390  0.40682348  0.49362927  1
  O  O200  1  0.90241233  0.78546455  0.49983995  1
  O  O201  1  0.59729081  0.22679606  0.50193833  1
  O  O202  1  0.40096977  0.70559314  0.50032836  1
  O  O203  1  0.09998270  0.29900071  0.50274875  1
  O  O204  1  0.43428911  0.02961446  0.52251163  1
  O  O205  1  0.05106207  0.97175560  0.52314183  1
  O  O206  1  0.54980951  0.51664705  0.52219084  1
  O  O207  1  0.93574567  0.48800206  0.52328216  1
  O  O208  1  0.21356131  0.80104495  0.53657193  1
  O  O209  1  0.28336539  0.23034790  0.54413139  1
  O  O210  1  0.71920194  0.68505796  0.53699255  1
  O  O211  1  0.78423375  0.31218802  0.53775693  1
  O  O212  1  0.53292202  0.85117259  0.55573455  1
  O  O213  1  0.96500767  0.14864916  0.56073366  1
  O  O214  1  0.03414787  0.65753031  0.55610420  1
  O  O215  1  0.47069867  0.36034045  0.58876622  1
  O  O216  1  0.84487095  0.94298694  0.56758529  1
  O  O217  1  0.64723949  0.05473102  0.57157215  1
  O  O218  1  0.14924822  0.46542344  0.57079469  1
  O  O219  1  0.35759964  0.55165853  0.57524687  1
  O  O220  1  0.33804076  0.93016532  0.59877768  1
  O  O221  1  0.15442024  0.05734330  0.60107072  1
  O  O222  1  0.67109967  0.46305251  0.59665732  1
  O  O223  1  0.85852860  0.58129616  0.61083989  1
  Li  Li224  1  0.10069995  0.70123196  0.64396374  1
  Li  Li225  1  0.87215872  0.17693722  0.64897796  1
  Li  Li226  1  0.59231294  0.78778088  0.64259237  1
  Li  Li227  1  0.92664543  0.57548614  0.66209769  1
  Li  Li228  1  0.95773974  0.90063759  0.08605416  1
  Li  Li229  1  0.60103560  0.69523541  0.10527534  1
  Li  Li230  1  0.89228595  0.32775056  0.10016641  1
  Li  Li231  1  0.09630976  0.78476175  0.13594862  1
  O  O232  1  0.43320621  0.05755278  0.10568019  1
  O  O233  1  0.08988578  0.92016602  0.10893143  1
  O  O234  1  0.56934669  0.55377969  0.10526876  1
  O  O235  1  0.92812389  0.46180674  0.10367480  1
  O  O236  1  0.26050159  0.19641034  0.12916869  1
  O  O237  1  0.73792581  0.69555757  0.12817107  1
  O  O238  1  0.76652088  0.31350124  0.12778172  1
  O  O239  1  0.54905522  0.84615089  0.13866515  1
  O  O240  1  0.95558109  0.13427744  0.14187630  1
  O  O241  1  0.06074482  0.64090007  0.14110052  1
  O  O242  1  0.45746958  0.35239063  0.14550082  1
  O  O243  1  0.44103385  0.13403439  0.60491674  1
  O  O244  1  0.04072770  0.85292750  0.60845207  1
  O  O245  1  0.96057065  0.36335067  0.60088923  1
  O  O246  1  0.54285641  0.65472168  0.61052460  1
  O  O247  1  0.76154959  0.24265423  0.62474378  1
  O  O248  1  0.73677506  0.79256105  0.62303361  1
  O  O249  1  0.24554958  0.33252305  0.62942129  1
  O  O250  1  0.23272395  0.69842556  0.62033299  1
  O  O251  1  0.91003918  0.04363480  0.64235579  1
  O  O252  1  0.56513050  0.93273203  0.64209885  1
  O  O253  1  0.06289349  0.55991083  0.64616913  1
