data_image0
_chemical_formula_structural       La2O3
_chemical_formula_sum              "La2 O3"
_cell_length_a       3.93077848
_cell_length_b       3.93077727593967
_cell_length_c       6.11195352
_cell_angle_alpha    90.0
_cell_angle_beta     90.0
_cell_angle_gamma    120.00001013285524

_space_group_name_H-M_alt    "P 1"
_space_group_IT_number       1

loop_
  _space_group_symop_operation_xyz
  'x, y, z'

loop_
  _atom_site_type_symbol
  _atom_site_label
  _atom_site_symmetry_multiplicity
  _atom_site_fract_x
  _atom_site_fract_y
  _atom_site_fract_z
  _atom_site_occupancy
  La  La1       1.0  0.6666670000000001  0.33333299999999993  0.7537643199999999  1.0000
  La  La2       1.0  0.333333  0.6666669999999999  0.24623568  1.0000
  O   O1        1.0  0.6666670000000001  0.33333299999999993  0.35410934999999993  1.0000
  O   O2        1.0  0.333333  0.6666669999999999  0.64589065  1.0000
  O   O3        1.0  0.0  0.0  0.0  1.0000
