data_image0
_chemical_formula_structural       Li2O
_chemical_formula_sum              "Li2 O1"
_cell_length_a       3.29066929378113
_cell_length_b       3.290669168874471
_cell_length_c       3.290669
_cell_angle_alpha    59.99999164503907
_cell_angle_beta     59.99999290067432
_cell_angle_gamma    59.99999981534343

_space_group_name_H-M_alt    "P 1"
_space_group_IT_number       1

loop_
  _space_group_symop_operation_xyz
  'x, y, z'

loop_
  _atom_site_type_symbol
  _atom_site_label
  _atom_site_symmetry_multiplicity
  _atom_site_fract_x
  _atom_site_fract_y
  _atom_site_fract_z
  _atom_site_occupancy
  Li  Li1       1.0  0.8369417651296516  0.1803439116088299  0.17036181136593243  1.0000
  Li  Li2       1.0  0.4589856419303544  0.8055099140101163  0.4454579502767757  1.0000
  O   O1        1.0  0.7439606513818688  0.3686853310561986  0.6932214258333858  1.0000
