data_image0
_chemical_formula_structural       Li2O
_chemical_formula_sum              "Li2 O1"
_cell_length_a       3.29066929378113
_cell_length_b       3.290669168874471
_cell_length_c       3.290669
_cell_angle_alpha    59.99999164503907
_cell_angle_beta     59.99999290067432
_cell_angle_gamma    59.99999981534343

_space_group_name_H-M_alt    "P 1"
_space_group_IT_number       1

loop_
  _space_group_symop_operation_xyz
  'x, y, z'

loop_
  _atom_site_type_symbol
  _atom_site_label
  _atom_site_symmetry_multiplicity
  _atom_site_fract_x
  _atom_site_fract_y
  _atom_site_fract_z
  _atom_site_occupancy
  Li  Li1       1.0  0.21202907846605967  0.32635533243118964  0.19087845264960634  1.0000
  Li  Li2       1.0  0.5247627938781356  0.45100945418187166  0.051056597123540826  1.0000
  O   O1        1.0  0.7759323871803474  0.8298432333346639  0.8525103162577636  1.0000
