data_image0
_chemical_formula_structural       Li2O
_chemical_formula_sum              "Li2 O1"
_cell_length_a       3.29066929378113
_cell_length_b       3.290669168874471
_cell_length_c       3.290669
_cell_angle_alpha    59.99999164503907
_cell_angle_beta     59.99999290067432
_cell_angle_gamma    59.99999981534343

_space_group_name_H-M_alt    "P 1"
_space_group_IT_number       1

loop_
  _space_group_symop_operation_xyz
  'x, y, z'

loop_
  _atom_site_type_symbol
  _atom_site_label
  _atom_site_symmetry_multiplicity
  _atom_site_fract_x
  _atom_site_fract_y
  _atom_site_fract_z
  _atom_site_occupancy
  Li  Li1       1.0  0.9435701846860525  0.9566348254082524  0.7057339064289749  1.0000
  Li  Li2       1.0  0.40215874583000755  0.9653682069072005  0.8982365989586256  1.0000
  O   O1        1.0  0.9350884888573914  0.7753702039098371  0.4221056732128403  1.0000
