data_image0
_chemical_formula_structural       O8
_chemical_formula_sum              "O8"
_cell_length_a       5.369789702272613
_cell_length_b       5.369789702272613
_cell_length_c       4.389828171850124
_cell_angle_alpha    69.24482967881451
_cell_angle_beta     69.24482967881451
_cell_angle_gamma    70.78662063844564

_space_group_name_H-M_alt    "P 1"
_space_group_IT_number       1

loop_
  _space_group_symop_operation_xyz
  'x, y, z'

loop_
  _atom_site_type_symbol
  _atom_site_label
  _atom_site_symmetry_multiplicity
  _atom_site_fract_x
  _atom_site_fract_y
  _atom_site_fract_z
  _atom_site_occupancy
  O   O1        1.0  0.23508037622406874  0.5064846912593381  0.7769664962557101  1.0000
  O   O2        1.0  0.51972591714663  0.875372185119959  0.5347634193865005  1.0000
  O   O3        1.0  0.7913518587724511  0.18614321691222102  0.43612398864378576  1.0000
  O   O4        1.0  0.8480891754289956  0.5715692218040305  0.1506498672930694  1.0000
  O   O5        1.0  0.4851809639305915  0.21331380037537429  0.8717858679895087  1.0000
  O   O6        1.0  0.9269263774142473  0.1779266010747378  0.08490492468616395  1.0000
  O   O7        1.0  0.9171062897114766  0.0618415150471705  0.11342965253716653  1.0000
  O   O8        1.0  0.27654117010865065  0.40734862720074183  0.031374640032982626  1.0000
