data_image0
_chemical_formula_structural       O8
_chemical_formula_sum              "O8"
_cell_length_a       5.369789702272613
_cell_length_b       5.369789702272613
_cell_length_c       4.389828171850124
_cell_angle_alpha    69.24482967881451
_cell_angle_beta     69.24482967881451
_cell_angle_gamma    70.78662063844564

_space_group_name_H-M_alt    "P 1"
_space_group_IT_number       1

loop_
  _space_group_symop_operation_xyz
  'x, y, z'

loop_
  _atom_site_type_symbol
  _atom_site_label
  _atom_site_symmetry_multiplicity
  _atom_site_fract_x
  _atom_site_fract_y
  _atom_site_fract_z
  _atom_site_occupancy
  O   O1        1.0  0.45860362891747997  0.10695233579388486  0.7932420236008024  1.0000
  O   O2        1.0  0.30201281413474135  0.3120525507127212  0.7877893048272284  1.0000
  O   O3        1.0  0.4690808845863259  0.6308598807977717  0.8022915275300377  1.0000
  O   O4        1.0  0.18826728419137773  0.9210096938886645  0.3758002843791708  1.0000
  O   O5        1.0  0.460305820202926  0.22307257641492306  0.6245203110235273  1.0000
  O   O6        1.0  0.7540936814329271  0.15738086384643424  0.4355793644535453  1.0000
  O   O7        1.0  0.7155947396589148  0.43098991329035385  0.5536584745454931  1.0000
  O   O8        1.0  0.6520402137320893  0.21768166459441085  0.6271188823866609  1.0000
