data_image0
_chemical_formula_structural       O8
_chemical_formula_sum              "O8"
_cell_length_a       5.369789702272613
_cell_length_b       5.369789702272613
_cell_length_c       4.389828171850124
_cell_angle_alpha    69.24482967881451
_cell_angle_beta     69.24482967881451
_cell_angle_gamma    70.78662063844564

_space_group_name_H-M_alt    "P 1"
_space_group_IT_number       1

loop_
  _space_group_symop_operation_xyz
  'x, y, z'

loop_
  _atom_site_type_symbol
  _atom_site_label
  _atom_site_symmetry_multiplicity
  _atom_site_fract_x
  _atom_site_fract_y
  _atom_site_fract_z
  _atom_site_occupancy
  O   O1        1.0  0.7365910103615967  0.14840640075939507  0.44679816870688427  1.0000
  O   O2        1.0  0.08055365691622418  0.49527734508352594  0.04168698534953563  1.0000
  O   O3        1.0  0.10732708792240686  0.6226643652105928  0.21508756570946375  1.0000
  O   O4        1.0  0.5020572674943384  0.10147210866713596  0.23823924733050816  1.0000
  O   O5        1.0  0.41302758487410784  0.08301522945112438  0.19584184084853262  1.0000
  O   O6        1.0  0.5158375893904932  0.3531572616849221  0.3671547268500497  1.0000
  O   O7        1.0  0.5343664464741131  0.43195863241272825  0.08924861828090869  1.0000
  O   O8        1.0  0.11024029933097879  0.7640485729161755  0.40594259504628916  1.0000
