data_image0
_chemical_formula_structural       O8
_chemical_formula_sum              "O8"
_cell_length_a       5.369789702272613
_cell_length_b       5.369789702272613
_cell_length_c       4.389828171850124
_cell_angle_alpha    69.24482967881451
_cell_angle_beta     69.24482967881451
_cell_angle_gamma    70.78662063844564

_space_group_name_H-M_alt    "P 1"
_space_group_IT_number       1

loop_
  _space_group_symop_operation_xyz
  'x, y, z'

loop_
  _atom_site_type_symbol
  _atom_site_label
  _atom_site_symmetry_multiplicity
  _atom_site_fract_x
  _atom_site_fract_y
  _atom_site_fract_z
  _atom_site_occupancy
  O   O1        1.0  0.02899589431196148  0.2745418299425175  0.15422257455693966  1.0000
  O   O2        1.0  0.4824908807260071  0.14604117171441544  0.6283404975127205  1.0000
  O   O3        1.0  0.16454830511905527  0.0560535725792235  0.8299804947023546  1.0000
  O   O4        1.0  0.5986981295215372  0.9893579202514182  0.8756854395245668  1.0000
  O   O5        1.0  0.36714857312531635  0.7559258367849253  0.6150103284586166  1.0000
  O   O6        1.0  0.1290702863318316  0.8622197815366697  0.28994268659941724  1.0000
  O   O7        1.0  0.43804919519584473  0.45458406116504513  0.7162952202558159  1.0000
  O   O8        1.0  0.7910002951270414  0.4612750461023998  0.8905239449763087  1.0000
