data_image0
_chemical_formula_structural       O8
_chemical_formula_sum              "O8"
_cell_length_a       5.369789702272613
_cell_length_b       5.369789702272613
_cell_length_c       4.389828171850124
_cell_angle_alpha    69.24482967881451
_cell_angle_beta     69.24482967881451
_cell_angle_gamma    70.78662063844564

_space_group_name_H-M_alt    "P 1"
_space_group_IT_number       1

loop_
  _space_group_symop_operation_xyz
  'x, y, z'

loop_
  _atom_site_type_symbol
  _atom_site_label
  _atom_site_symmetry_multiplicity
  _atom_site_fract_x
  _atom_site_fract_y
  _atom_site_fract_z
  _atom_site_occupancy
  O   O1        1.0  0.1311926911699146  0.06945815174909598  0.4700702948486253  1.0000
  O   O2        1.0  0.279086406146849  0.19096390830486065  0.5889609040784336  1.0000
  O   O3        1.0  0.08707411724266478  0.16008949939666905  0.7722249209011665  1.0000
  O   O4        1.0  0.37488009713713666  0.3292637962529881  0.33234956213938105  1.0000
  O   O5        1.0  0.48185316242837395  0.9744175514475302  0.15978243073649523  1.0000
  O   O6        1.0  0.8851028452562915  0.8937617387014747  0.3235763502602538  1.0000
  O   O7        1.0  0.6087248615437808  0.20709681050125628  0.9440535219900354  1.0000
  O   O8        1.0  0.152087639338923  0.17494810081981704  0.4089819479829231  1.0000
