data_image0
_chemical_formula_structural       O8
_chemical_formula_sum              "O8"
_cell_length_a       5.369789702272613
_cell_length_b       5.369789702272613
_cell_length_c       4.389828171850124
_cell_angle_alpha    69.24482967881451
_cell_angle_beta     69.24482967881451
_cell_angle_gamma    70.78662063844564

_space_group_name_H-M_alt    "P 1"
_space_group_IT_number       1

loop_
  _space_group_symop_operation_xyz
  'x, y, z'

loop_
  _atom_site_type_symbol
  _atom_site_label
  _atom_site_symmetry_multiplicity
  _atom_site_fract_x
  _atom_site_fract_y
  _atom_site_fract_z
  _atom_site_occupancy
  O   O1        1.0  0.2020017940419052  0.16474886976119052  0.7990630382996073  1.0000
  O   O2        1.0  0.16273613104582196  0.4130905774054341  0.16525153639891244  1.0000
  O   O3        1.0  0.27637356504011734  0.7333818390617743  0.015460450364471967  1.0000
  O   O4        1.0  0.5428370552365038  0.8768731906013301  0.1853461263216616  1.0000
  O   O5        1.0  0.3948969144391903  0.16522499293733972  0.7752129405409462  1.0000
  O   O6        1.0  0.6867654279804114  0.6508250007094336  0.8675729781291075  1.0000
  O   O7        1.0  0.6425162868315333  0.5920788886295711  0.043173766585583806  1.0000
  O   O8        1.0  0.09187481877476245  0.40377634201669643  0.14891888049316648  1.0000
