data_image0
_chemical_formula_structural       O8
_chemical_formula_sum              "O8"
_cell_length_a       5.369789702272613
_cell_length_b       5.369789702272613
_cell_length_c       4.389828171850124
_cell_angle_alpha    69.24482967881451
_cell_angle_beta     69.24482967881451
_cell_angle_gamma    70.78662063844564

_space_group_name_H-M_alt    "P 1"
_space_group_IT_number       1

loop_
  _space_group_symop_operation_xyz
  'x, y, z'

loop_
  _atom_site_type_symbol
  _atom_site_label
  _atom_site_symmetry_multiplicity
  _atom_site_fract_x
  _atom_site_fract_y
  _atom_site_fract_z
  _atom_site_occupancy
  O   O1        1.0  0.8903844899066584  0.9046376369963625  0.7815320547002642  1.0000
  O   O2        1.0  0.9503590026995745  0.03596470344341185  0.07095535648046791  1.0000
  O   O3        1.0  0.5380456289007327  0.4914480041075535  0.249145648672652  1.0000
  O   O4        1.0  0.3060197351185323  0.9654185112430014  0.31268253396957313  1.0000
  O   O5        1.0  0.5119172351765506  0.6366854657719898  0.08148491406676683  1.0000
  O   O6        1.0  0.46159753280120697  0.3354764982927314  0.9326256598762726  1.0000
  O   O7        1.0  0.16036207040664685  0.45548725159333614  0.32633740205189454  1.0000
  O   O8        1.0  0.18131609588131425  0.1748813835823908  0.24523690957776267  1.0000
