data_image0
_chemical_formula_structural       O8
_chemical_formula_sum              "O8"
_cell_length_a       5.369789702272613
_cell_length_b       5.369789702272613
_cell_length_c       4.389828171850124
_cell_angle_alpha    69.24482967881451
_cell_angle_beta     69.24482967881451
_cell_angle_gamma    70.78662063844564

_space_group_name_H-M_alt    "P 1"
_space_group_IT_number       1

loop_
  _space_group_symop_operation_xyz
  'x, y, z'

loop_
  _atom_site_type_symbol
  _atom_site_label
  _atom_site_symmetry_multiplicity
  _atom_site_fract_x
  _atom_site_fract_y
  _atom_site_fract_z
  _atom_site_occupancy
  O   O1        1.0  0.020986626909911266  0.6851445671457475  0.037231586764402635  1.0000
  O   O2        1.0  0.29022503528303645  0.24398391227125416  0.1924837656430043  1.0000
  O   O3        1.0  0.3615189739337943  0.06833682411488695  0.33558112753105007  1.0000
  O   O4        1.0  0.5791489662654712  0.8285036090726381  0.24037716395246989  1.0000
  O   O5        1.0  0.13665693684523128  0.5697497600283938  0.08722653457823526  1.0000
  O   O6        1.0  0.1673746966701426  0.5833645546094317  0.5170637270853575  1.0000
  O   O7        1.0  0.06607593683522961  0.976926727335013  0.9827218847770922  1.0000
  O   O8        1.0  0.37801305544871866  0.043990178033217475  0.6073135843737134  1.0000
