data_image0
_chemical_formula_structural       O8
_chemical_formula_sum              "O8"
_cell_length_a       5.369789702272613
_cell_length_b       5.369789702272613
_cell_length_c       4.389828171850124
_cell_angle_alpha    69.24482967881451
_cell_angle_beta     69.24482967881451
_cell_angle_gamma    70.78662063844564

_space_group_name_H-M_alt    "P 1"
_space_group_IT_number       1

loop_
  _space_group_symop_operation_xyz
  'x, y, z'

loop_
  _atom_site_type_symbol
  _atom_site_label
  _atom_site_symmetry_multiplicity
  _atom_site_fract_x
  _atom_site_fract_y
  _atom_site_fract_z
  _atom_site_occupancy
  O   O1        1.0  0.8536651984497876  0.5433059330020829  0.9149916017507032  1.0000
  O   O2        1.0  0.24159103539604132  0.18751541980884667  0.27822920009720065  1.0000
  O   O3        1.0  0.7969837169699261  0.8401413266836428  0.3777555760591298  1.0000
  O   O4        1.0  0.9231961812784384  0.5059699398823048  0.6356537789334986  1.0000
  O   O5        1.0  0.797547821006134  0.5909084909918683  0.6024876621503097  1.0000
  O   O6        1.0  0.27267569390665614  0.7484137797517398  0.41009943239829916  1.0000
  O   O7        1.0  0.11756607543702202  0.6761000724153803  0.9203776560742369  1.0000
  O   O8        1.0  0.9967738262640431  0.9076445087898799  0.860405223536759  1.0000
