data_image0
_chemical_formula_structural       O8
_chemical_formula_sum              "O8"
_cell_length_a       5.369789702272613
_cell_length_b       5.369789702272613
_cell_length_c       4.389828171850124
_cell_angle_alpha    69.24482967881451
_cell_angle_beta     69.24482967881451
_cell_angle_gamma    70.78662063844564

_space_group_name_H-M_alt    "P 1"
_space_group_IT_number       1

loop_
  _space_group_symop_operation_xyz
  'x, y, z'

loop_
  _atom_site_type_symbol
  _atom_site_label
  _atom_site_symmetry_multiplicity
  _atom_site_fract_x
  _atom_site_fract_y
  _atom_site_fract_z
  _atom_site_occupancy
  O   O1        1.0  0.3335986061145775  0.36056144886363484  0.25466156390392314  1.0000
  O   O2        1.0  0.5234692016954874  0.1976187156578284  0.5222513476782957  1.0000
  O   O3        1.0  0.6791725779748177  0.2212581332975816  0.19062008988353263  1.0000
  O   O4        1.0  0.842806052666262  0.207556904570799  0.5287315148414651  1.0000
  O   O5        1.0  0.8767216909339979  0.2477950619238385  0.6764958856739511  1.0000
  O   O6        1.0  0.3829741397286064  0.42364140583329424  0.366223814742078  1.0000
  O   O7        1.0  0.28520582159267427  0.09051414414876291  0.3602604138235779  1.0000
  O   O8        1.0  0.0760531167687688  0.2510533451910355  0.10075524958495663  1.0000
