data_image0
_chemical_formula_structural       O8
_chemical_formula_sum              "O8"
_cell_length_a       5.369789702272613
_cell_length_b       5.369789702272613
_cell_length_c       4.389828171850124
_cell_angle_alpha    69.24482967881451
_cell_angle_beta     69.24482967881451
_cell_angle_gamma    70.78662063844564

_space_group_name_H-M_alt    "P 1"
_space_group_IT_number       1

loop_
  _space_group_symop_operation_xyz
  'x, y, z'

loop_
  _atom_site_type_symbol
  _atom_site_label
  _atom_site_symmetry_multiplicity
  _atom_site_fract_x
  _atom_site_fract_y
  _atom_site_fract_z
  _atom_site_occupancy
  O   O1        1.0  0.033401703339147826  0.061049941392326446  0.4290994443215368  1.0000
  O   O2        1.0  0.9913409372289763  0.8572752308448486  0.11263178796176732  1.0000
  O   O3        1.0  0.034097555023296255  0.7043135126108524  0.8040347267304071  1.0000
  O   O4        1.0  0.4272358828440659  0.4839271061201931  0.2828405978533226  1.0000
  O   O5        1.0  0.3028494395916752  0.7765984572444182  0.8420338792333979  1.0000
  O   O6        1.0  0.8176029279199284  0.7496426507282621  0.5334425437135621  1.0000
  O   O7        1.0  0.47307730525512426  0.9668014771912681  0.2299503018492146  1.0000
  O   O8        1.0  0.9203960621332925  0.40039159560465265  0.7659657155293687  1.0000
