data_image0
_chemical_formula_structural       O8
_chemical_formula_sum              "O8"
_cell_length_a       5.369789702272613
_cell_length_b       5.369789702272613
_cell_length_c       4.389828171850124
_cell_angle_alpha    69.24482967881451
_cell_angle_beta     69.24482967881451
_cell_angle_gamma    70.78662063844564

_space_group_name_H-M_alt    "P 1"
_space_group_IT_number       1

loop_
  _space_group_symop_operation_xyz
  'x, y, z'

loop_
  _atom_site_type_symbol
  _atom_site_label
  _atom_site_symmetry_multiplicity
  _atom_site_fract_x
  _atom_site_fract_y
  _atom_site_fract_z
  _atom_site_occupancy
  O   O1        1.0  0.41389122973334214  0.9747874044222054  0.3811164829839946  1.0000
  O   O2        1.0  0.7560897732190881  0.8115801054194733  0.13321296746398303  1.0000
  O   O3        1.0  0.12773756993709995  0.5923683751721143  0.9255305545843271  1.0000
  O   O4        1.0  0.888720743571537  0.35637243262430296  0.1868776750910488  1.0000
  O   O5        1.0  0.17449377309119996  0.9496492402194221  0.5851101806911103  1.0000
  O   O6        1.0  0.23938779354978834  0.8286704163342904  0.653417800215432  1.0000
  O   O7        1.0  0.5186368303452582  0.92421240666404  0.559921863416541  1.0000
  O   O8        1.0  0.881041510047794  0.5623593007125116  0.5748125729878168  1.0000
