data_image0
_chemical_formula_structural       O8
_chemical_formula_sum              "O8"
_cell_length_a       5.369789702272613
_cell_length_b       5.369789702272613
_cell_length_c       4.389828171850124
_cell_angle_alpha    69.24482967881451
_cell_angle_beta     69.24482967881451
_cell_angle_gamma    70.78662063844564

_space_group_name_H-M_alt    "P 1"
_space_group_IT_number       1

loop_
  _space_group_symop_operation_xyz
  'x, y, z'

loop_
  _atom_site_type_symbol
  _atom_site_label
  _atom_site_symmetry_multiplicity
  _atom_site_fract_x
  _atom_site_fract_y
  _atom_site_fract_z
  _atom_site_occupancy
  O   O1        1.0  0.8715129087742882  0.13629739074146663  0.4241529296930935  1.0000
  O   O2        1.0  0.29811699285589555  0.6036594951497634  0.9313004948717705  1.0000
  O   O3        1.0  0.8669846450249814  0.878123114431105  0.18865656457693092  1.0000
  O   O4        1.0  0.9018425782441888  0.6148852096641555  0.19394322588406965  1.0000
  O   O5        1.0  0.5370292404012034  0.6533684135373896  0.7052940161341681  1.0000
  O   O6        1.0  0.6462684362942639  0.6566982990661003  0.03604396710228386  1.0000
  O   O7        1.0  0.9183774573337757  0.5888963754608767  0.55819686573642  1.0000
  O   O8        1.0  0.9598694311785252  0.8680712781139004  0.9624112801218914  1.0000
