data_image0
_chemical_formula_structural       O8
_chemical_formula_sum              "O8"
_cell_length_a       5.369789702272613
_cell_length_b       5.369789702272613
_cell_length_c       4.389828171850124
_cell_angle_alpha    69.24482967881451
_cell_angle_beta     69.24482967881451
_cell_angle_gamma    70.78662063844564

_space_group_name_H-M_alt    "P 1"
_space_group_IT_number       1

loop_
  _space_group_symop_operation_xyz
  'x, y, z'

loop_
  _atom_site_type_symbol
  _atom_site_label
  _atom_site_symmetry_multiplicity
  _atom_site_fract_x
  _atom_site_fract_y
  _atom_site_fract_z
  _atom_site_occupancy
  O   O1        1.0  0.5365798130885739  0.5203258791397509  0.03545023514985157  1.0000
  O   O2        1.0  0.606913118165302  0.6689523877343007  0.24567274504791925  1.0000
  O   O3        1.0  0.3641927552198645  0.8347838413270878  0.34796282131148715  1.0000
  O   O4        1.0  0.7502426928618458  0.2877663220352753  0.1761069879185584  1.0000
  O   O5        1.0  0.7440282466242554  0.1905958488915278  0.5993492057489078  1.0000
  O   O6        1.0  0.35332863951707427  0.18570510500056514  0.40357229731271715  1.0000
  O   O7        1.0  0.7247300758086563  0.2927761988290456  0.8393214225272203  1.0000
  O   O8        1.0  0.9199844398888892  0.01909386796879664  0.3525642108011766  1.0000
