data_image0
_chemical_formula_structural       O8
_chemical_formula_sum              "O8"
_cell_length_a       5.369789702272613
_cell_length_b       5.369789702272613
_cell_length_c       4.389828171850124
_cell_angle_alpha    69.24482967881451
_cell_angle_beta     69.24482967881451
_cell_angle_gamma    70.78662063844564

_space_group_name_H-M_alt    "P 1"
_space_group_IT_number       1

loop_
  _space_group_symop_operation_xyz
  'x, y, z'

loop_
  _atom_site_type_symbol
  _atom_site_label
  _atom_site_symmetry_multiplicity
  _atom_site_fract_x
  _atom_site_fract_y
  _atom_site_fract_z
  _atom_site_occupancy
  O   O1        1.0  0.07391712542919748  0.7779214028759647  0.4910210487235105  1.0000
  O   O2        1.0  0.34937081905293077  0.19462714302027706  0.63203019111155  1.0000
  O   O3        1.0  0.5263834319422358  0.8866896333437779  0.10056306512518631  1.0000
  O   O4        1.0  0.1521560805479112  0.7158063366177982  0.24244377651059904  1.0000
  O   O5        1.0  0.9516826181247104  0.5842158539765236  0.35696814214644235  1.0000
  O   O6        1.0  0.7791114080509836  0.4014785971150161  0.05399896430851214  1.0000
  O   O7        1.0  0.07018132841553815  0.1417060021540948  0.6101847393542714  1.0000
  O   O8        1.0  0.09719891746156151  0.2975552617094781  0.512789102599537  1.0000
