data_image0
_chemical_formula_structural       O8
_chemical_formula_sum              "O8"
_cell_length_a       5.369789702272613
_cell_length_b       5.369789702272613
_cell_length_c       4.389828171850124
_cell_angle_alpha    69.24482967881451
_cell_angle_beta     69.24482967881451
_cell_angle_gamma    70.78662063844564

_space_group_name_H-M_alt    "P 1"
_space_group_IT_number       1

loop_
  _space_group_symop_operation_xyz
  'x, y, z'

loop_
  _atom_site_type_symbol
  _atom_site_label
  _atom_site_symmetry_multiplicity
  _atom_site_fract_x
  _atom_site_fract_y
  _atom_site_fract_z
  _atom_site_occupancy
  O   O1        1.0  0.23560293755809347  0.5328992227003617  0.1554641656701703  1.0000
  O   O2        1.0  0.27825043901309954  0.6787333273447729  0.1854812502477614  1.0000
  O   O3        1.0  0.6856365504423536  0.25557490468636956  0.4204155238341869  1.0000
  O   O4        1.0  0.1474502974624785  0.9768385981253012  0.9821189022107433  1.0000
  O   O5        1.0  0.49181245135475393  0.7074516469852199  0.1588522882632617  1.0000
  O   O6        1.0  0.6917586284171855  0.8956675085015675  0.649280201948395  1.0000
  O   O7        1.0  0.3710126386915231  0.9796252703102191  0.3788536703128358  1.0000
  O   O8        1.0  0.09847615678852684  0.9732094198636263  0.06953302778342518  1.0000
