data_image0
_chemical_formula_structural       O8
_chemical_formula_sum              "O8"
_cell_length_a       5.369789702272613
_cell_length_b       5.369789702272613
_cell_length_c       4.389828171850124
_cell_angle_alpha    69.24482967881451
_cell_angle_beta     69.24482967881451
_cell_angle_gamma    70.78662063844564

_space_group_name_H-M_alt    "P 1"
_space_group_IT_number       1

loop_
  _space_group_symop_operation_xyz
  'x, y, z'

loop_
  _atom_site_type_symbol
  _atom_site_label
  _atom_site_symmetry_multiplicity
  _atom_site_fract_x
  _atom_site_fract_y
  _atom_site_fract_z
  _atom_site_occupancy
  O   O1        1.0  0.023907219100536694  0.29029206621942016  0.8288420891613626  1.0000
  O   O2        1.0  0.5113557160020008  0.6512569837515585  0.9746712645822342  1.0000
  O   O3        1.0  0.39326990189695277  0.09113326952819278  0.025704844742747923  1.0000
  O   O4        1.0  0.6587261797083137  0.9283313323739257  0.6444294362428806  1.0000
  O   O5        1.0  0.4692425821336812  0.6794885700672424  0.021035124565102592  1.0000
  O   O6        1.0  0.8665851773349331  0.7241868679617838  0.28881323374557866  1.0000
  O   O7        1.0  0.9762545799404876  0.36039387294695047  0.8114002993753218  1.0000
  O   O8        1.0  0.10066037933450644  0.2749166522828368  0.40510291841444257  1.0000
