data_image0
_chemical_formula_structural       O8
_chemical_formula_sum              "O8"
_cell_length_a       5.369789702272613
_cell_length_b       5.369789702272613
_cell_length_c       4.389828171850124
_cell_angle_alpha    69.24482967881451
_cell_angle_beta     69.24482967881451
_cell_angle_gamma    70.78662063844564

_space_group_name_H-M_alt    "P 1"
_space_group_IT_number       1

loop_
  _space_group_symop_operation_xyz
  'x, y, z'

loop_
  _atom_site_type_symbol
  _atom_site_label
  _atom_site_symmetry_multiplicity
  _atom_site_fract_x
  _atom_site_fract_y
  _atom_site_fract_z
  _atom_site_occupancy
  O   O1        1.0  0.7026623132242911  0.2078821286588557  0.9810623208496025  1.0000
  O   O2        1.0  0.36429453049514393  0.7799914966264865  0.5344492222974395  1.0000
  O   O3        1.0  0.7793711567261532  0.6021879995844088  0.7422909197895535  1.0000
  O   O4        1.0  0.8922278191106443  0.613112791722008  0.9768513458082353  1.0000
  O   O5        1.0  0.1316681001624005  0.2893309986297101  0.38276183092298766  1.0000
  O   O6        1.0  0.6641312412738658  0.4792454915406452  0.11834079917309737  1.0000
  O   O7        1.0  0.0096953269275879  0.18871601236384095  0.9393596853601167  1.0000
  O   O8        1.0  0.4559516539427273  0.839533291378153  0.324881528218782  1.0000
