data_image0
_chemical_formula_structural       O8
_chemical_formula_sum              "O8"
_cell_length_a       5.369789702272613
_cell_length_b       5.369789702272613
_cell_length_c       4.389828171850124
_cell_angle_alpha    69.24482967881451
_cell_angle_beta     69.24482967881451
_cell_angle_gamma    70.78662063844564

_space_group_name_H-M_alt    "P 1"
_space_group_IT_number       1

loop_
  _space_group_symop_operation_xyz
  'x, y, z'

loop_
  _atom_site_type_symbol
  _atom_site_label
  _atom_site_symmetry_multiplicity
  _atom_site_fract_x
  _atom_site_fract_y
  _atom_site_fract_z
  _atom_site_occupancy
  O   O1        1.0  0.5439541407158774  0.9761736495861761  0.9042283029269882  1.0000
  O   O2        1.0  0.7465298382285255  0.430304643074777  0.7027296541230328  1.0000
  O   O3        1.0  0.09746327121562337  0.38026873249104653  0.7460532228217573  1.0000
  O   O4        1.0  0.838785372544443  0.3782798288145788  0.3309261369046652  1.0000
  O   O5        1.0  0.3056041528479625  0.3794707305357079  0.053631231074319885  1.0000
  O   O6        1.0  0.6220966527938074  0.47180582916344704  0.2489520621289003  1.0000
  O   O7        1.0  0.20178212936062323  0.7907201239734079  0.3027907869316806  1.0000
  O   O8        1.0  0.6437862343803573  0.19297680040323684  0.7106874549286104  1.0000
