data_image0
_chemical_formula_structural       O8
_chemical_formula_sum              "O8"
_cell_length_a       5.369789702272613
_cell_length_b       5.369789702272613
_cell_length_c       4.389828171850124
_cell_angle_alpha    69.24482967881451
_cell_angle_beta     69.24482967881451
_cell_angle_gamma    70.78662063844564

_space_group_name_H-M_alt    "P 1"
_space_group_IT_number       1

loop_
  _space_group_symop_operation_xyz
  'x, y, z'

loop_
  _atom_site_type_symbol
  _atom_site_label
  _atom_site_symmetry_multiplicity
  _atom_site_fract_x
  _atom_site_fract_y
  _atom_site_fract_z
  _atom_site_occupancy
  O   O1        1.0  0.3488005572589372  0.3796846823354265  0.14158943150083836  1.0000
  O   O2        1.0  0.8867748819551728  0.2903707128977473  0.7809557546461505  1.0000
  O   O3        1.0  0.22259119322242782  0.8678054914428017  0.40784507013623994  1.0000
  O   O4        1.0  0.06767368685791908  0.3173637045153175  0.7044745750016936  1.0000
  O   O5        1.0  0.9057434059865423  0.895889533637833  0.6694180313839198  1.0000
  O   O6        1.0  0.33458785303860417  0.5516168921843345  0.6805268529794772  1.0000
  O   O7        1.0  0.8301189175097896  0.8186402538525789  0.05645941510061192  1.0000
  O   O8        1.0  0.4037095992810684  0.8786288205156314  0.5587305203972228  1.0000
