data_image0
_chemical_formula_structural       O8
_chemical_formula_sum              "O8"
_cell_length_a       5.369789702272613
_cell_length_b       5.369789702272613
_cell_length_c       4.389828171850124
_cell_angle_alpha    69.24482967881451
_cell_angle_beta     69.24482967881451
_cell_angle_gamma    70.78662063844564

_space_group_name_H-M_alt    "P 1"
_space_group_IT_number       1

loop_
  _space_group_symop_operation_xyz
  'x, y, z'

loop_
  _atom_site_type_symbol
  _atom_site_label
  _atom_site_symmetry_multiplicity
  _atom_site_fract_x
  _atom_site_fract_y
  _atom_site_fract_z
  _atom_site_occupancy
  O   O1        1.0  0.15290177670041016  0.8173167457182622  0.222625422629676  1.0000
  O   O2        1.0  0.35569249993666574  0.8866891724077561  0.6431723980084385  1.0000
  O   O3        1.0  0.1010555996287068  0.04594043470086717  0.1785419207744141  1.0000
  O   O4        1.0  0.6483895785514591  0.016647156036600386  0.4050883507526528  1.0000
  O   O5        1.0  0.8552252259070627  0.13880775278028779  0.5649248587140079  1.0000
  O   O6        1.0  0.06547940187878964  0.4301999483361243  0.7008773837530029  1.0000
  O   O7        1.0  0.5786101620439723  0.5223374540833561  0.44316633623778046  1.0000
  O   O8        1.0  0.24264748207221132  0.14206166077534021  0.8416022704645556  1.0000
