data_image0
_chemical_formula_structural       O8
_chemical_formula_sum              "O8"
_cell_length_a       5.369789702272613
_cell_length_b       5.369789702272613
_cell_length_c       4.389828171850124
_cell_angle_alpha    69.24482967881451
_cell_angle_beta     69.24482967881451
_cell_angle_gamma    70.78662063844564

_space_group_name_H-M_alt    "P 1"
_space_group_IT_number       1

loop_
  _space_group_symop_operation_xyz
  'x, y, z'

loop_
  _atom_site_type_symbol
  _atom_site_label
  _atom_site_symmetry_multiplicity
  _atom_site_fract_x
  _atom_site_fract_y
  _atom_site_fract_z
  _atom_site_occupancy
  O   O1        1.0  0.4887952523837136  0.5829616830615478  0.7276437915750265  1.0000
  O   O2        1.0  0.9077677652615703  0.739885697809413  0.2067211267697644  1.0000
  O   O3        1.0  0.08078994704533216  0.6991141894201505  0.48629817812144793  1.0000
  O   O4        1.0  0.20669713990508143  0.9542582846477945  0.8318130885234822  1.0000
  O   O5        1.0  0.5165131996872745  0.7945038941291074  0.10944300410259533  1.0000
  O   O6        1.0  0.29757304442696864  0.15881493832613058  0.6900064197723808  1.0000
  O   O7        1.0  0.731574162255825  0.6228878613891276  0.20205497973297526  1.0000
  O   O8        1.0  0.7702906328113741  0.44757264703663324  0.7460193829748398  1.0000
