data_image0
_chemical_formula_structural       O8
_chemical_formula_sum              "O8"
_cell_length_a       5.369789702272613
_cell_length_b       5.369789702272613
_cell_length_c       4.389828171850124
_cell_angle_alpha    69.24482967881451
_cell_angle_beta     69.24482967881451
_cell_angle_gamma    70.78662063844564

_space_group_name_H-M_alt    "P 1"
_space_group_IT_number       1

loop_
  _space_group_symop_operation_xyz
  'x, y, z'

loop_
  _atom_site_type_symbol
  _atom_site_label
  _atom_site_symmetry_multiplicity
  _atom_site_fract_x
  _atom_site_fract_y
  _atom_site_fract_z
  _atom_site_occupancy
  O   O1        1.0  0.4088273414235388  0.3066693413687931  0.031851311848409836  1.0000
  O   O2        1.0  0.10447885388600042  0.2686169455856344  0.15846735216910446  1.0000
  O   O3        1.0  0.37963215959975116  0.0318394247010545  0.12405327196351301  1.0000
  O   O4        1.0  0.24421011192206876  0.904434800615233  0.8591055361599906  1.0000
  O   O5        1.0  0.4881734863446603  0.8879176431680733  0.9875813995731834  1.0000
  O   O6        1.0  0.9649873787778702  0.2666812701852237  0.9119044743523474  1.0000
  O   O7        1.0  0.15577260764402112  0.23484486869930166  0.4545308411166076  1.0000
  O   O8        1.0  0.2539186342499562  0.09899570826152626  0.47250630815613914  1.0000
