data_image0
_chemical_formula_structural       O8
_chemical_formula_sum              "O8"
_cell_length_a       5.369789702272613
_cell_length_b       5.369789702272613
_cell_length_c       4.389828171850124
_cell_angle_alpha    69.24482967881451
_cell_angle_beta     69.24482967881451
_cell_angle_gamma    70.78662063844564

_space_group_name_H-M_alt    "P 1"
_space_group_IT_number       1

loop_
  _space_group_symop_operation_xyz
  'x, y, z'

loop_
  _atom_site_type_symbol
  _atom_site_label
  _atom_site_symmetry_multiplicity
  _atom_site_fract_x
  _atom_site_fract_y
  _atom_site_fract_z
  _atom_site_occupancy
  O   O1        1.0  0.24049276474394965  0.8587602787113511  0.3522705208886432  1.0000
  O   O2        1.0  0.502983003336622  0.2739247407700276  0.08306102790570691  1.0000
  O   O3        1.0  0.36326648206956236  0.5317914800213757  0.9945848772215147  1.0000
  O   O4        1.0  0.704583540601023  0.44432270114045114  0.5814495663625205  1.0000
  O   O5        1.0  0.3779268352119658  0.7111144937075196  0.6858916858763329  1.0000
  O   O6        1.0  0.8285064073749098  0.12098677792079116  0.8773870001435373  1.0000
  O   O7        1.0  0.7283320406889722  0.6016135010175017  0.6147468479984575  1.0000
  O   O8        1.0  0.25390980440244704  0.4574860011085829  0.8106080080709273  1.0000
