data_image0
_chemical_formula_structural       O8
_chemical_formula_sum              "O8"
_cell_length_a       5.369789702272613
_cell_length_b       5.369789702272613
_cell_length_c       4.389828171850124
_cell_angle_alpha    69.24482967881451
_cell_angle_beta     69.24482967881451
_cell_angle_gamma    70.78662063844564

_space_group_name_H-M_alt    "P 1"
_space_group_IT_number       1

loop_
  _space_group_symop_operation_xyz
  'x, y, z'

loop_
  _atom_site_type_symbol
  _atom_site_label
  _atom_site_symmetry_multiplicity
  _atom_site_fract_x
  _atom_site_fract_y
  _atom_site_fract_z
  _atom_site_occupancy
  O   O1        1.0  0.6645398447207977  0.31135650393916947  0.9314104331082547  1.0000
  O   O2        1.0  0.0762775880136104  0.18414907722131346  0.23075650575542284  1.0000
  O   O3        1.0  0.48622492766856995  0.10984104344980494  0.5523051688948044  1.0000
  O   O4        1.0  0.055783278522199  0.9596340120485722  0.8450255007961083  1.0000
  O   O5        1.0  0.09624989508951387  0.5478037046512156  0.16898513170417573  1.0000
  O   O6        1.0  0.8147806486033105  0.10300623519423269  0.9881885320268182  1.0000
  O   O7        1.0  0.5072300387960098  0.31977141062792924  0.6899661362852072  1.0000
  O   O8        1.0  0.2989154842593962  0.46443826638817853  0.5933613340076391  1.0000
