data_image0
_chemical_formula_structural       O8
_chemical_formula_sum              "O8"
_cell_length_a       5.369789702272613
_cell_length_b       5.369789702272613
_cell_length_c       4.389828171850124
_cell_angle_alpha    69.24482967881451
_cell_angle_beta     69.24482967881451
_cell_angle_gamma    70.78662063844564

_space_group_name_H-M_alt    "P 1"
_space_group_IT_number       1

loop_
  _space_group_symop_operation_xyz
  'x, y, z'

loop_
  _atom_site_type_symbol
  _atom_site_label
  _atom_site_symmetry_multiplicity
  _atom_site_fract_x
  _atom_site_fract_y
  _atom_site_fract_z
  _atom_site_occupancy
  O   O1        1.0  0.5222967004354926  0.28430047097761957  0.36964190559967847  1.0000
  O   O2        1.0  0.25306589723305706  0.7084699899908316  0.46055523521231123  1.0000
  O   O3        1.0  0.35273634277863053  0.16313311926815288  0.3586760075933171  1.0000
  O   O4        1.0  0.9518878078045816  0.20608404019959958  0.09760363411239936  1.0000
  O   O5        1.0  0.79938551288231  0.2427843585221261  0.2653024854329544  1.0000
  O   O6        1.0  0.7938357183283085  0.5489847121921301  0.9713564705119637  1.0000
  O   O7        1.0  0.567378915632176  0.6131719902564754  0.8918185194031167  1.0000
  O   O8        1.0  0.7594149307125839  0.23307144325428197  0.5850443951531545  1.0000
