data_image0
_chemical_formula_structural       O8
_chemical_formula_sum              "O8"
_cell_length_a       5.369789702272613
_cell_length_b       5.369789702272613
_cell_length_c       4.389828171850124
_cell_angle_alpha    69.24482967881451
_cell_angle_beta     69.24482967881451
_cell_angle_gamma    70.78662063844564

_space_group_name_H-M_alt    "P 1"
_space_group_IT_number       1

loop_
  _space_group_symop_operation_xyz
  'x, y, z'

loop_
  _atom_site_type_symbol
  _atom_site_label
  _atom_site_symmetry_multiplicity
  _atom_site_fract_x
  _atom_site_fract_y
  _atom_site_fract_z
  _atom_site_occupancy
  O   O1        1.0  0.13720844994921855  0.29944637378627853  0.14571588619411813  1.0000
  O   O2        1.0  0.07806464271101365  0.0030701946313769213  0.30297725243767815  1.0000
  O   O3        1.0  0.7085208685341797  0.8170437863259856  0.011631327279489234  1.0000
  O   O4        1.0  0.10870080714120789  0.8585153035002582  0.6050912507696768  1.0000
  O   O5        1.0  0.9678771404341688  0.9951939488972936  0.7645615814009615  1.0000
  O   O6        1.0  0.26166125262121653  0.59230705053037  0.6552218174013635  1.0000
  O   O7        1.0  0.9710473761665668  0.856773660771136  0.3500267368990393  1.0000
  O   O8        1.0  0.7669203418361192  0.5776496322560312  0.16477402377605  1.0000
