data_image0
_chemical_formula_structural       O8
_chemical_formula_sum              "O8"
_cell_length_a       5.369789702272613
_cell_length_b       5.369789702272613
_cell_length_c       4.389828171850124
_cell_angle_alpha    69.24482967881451
_cell_angle_beta     69.24482967881451
_cell_angle_gamma    70.78662063844564

_space_group_name_H-M_alt    "P 1"
_space_group_IT_number       1

loop_
  _space_group_symop_operation_xyz
  'x, y, z'

loop_
  _atom_site_type_symbol
  _atom_site_label
  _atom_site_symmetry_multiplicity
  _atom_site_fract_x
  _atom_site_fract_y
  _atom_site_fract_z
  _atom_site_occupancy
  O   O1        1.0  0.8996328680590882  0.7789534165997516  0.3260122786053673  1.0000
  O   O2        1.0  0.18860276501731477  0.4226885290423823  0.16462379278331696  1.0000
  O   O3        1.0  0.23365230629097766  0.24384621147256524  0.4643058619989482  1.0000
  O   O4        1.0  0.8149782203388103  0.3239871428999396  0.39823467725665296  1.0000
  O   O5        1.0  0.6099949982665862  0.46840801041648383  0.33713557472679767  1.0000
  O   O6        1.0  0.4885690401958058  0.7504064280663059  0.5894699102285124  1.0000
  O   O7        1.0  0.43758190996596724  0.2240157361986057  0.3014469715391215  1.0000
  O   O8        1.0  0.32698696461937615  0.7876940761618219  0.4187710731078482  1.0000
