data_image0
_chemical_formula_structural       O8
_chemical_formula_sum              "O8"
_cell_length_a       5.369789702272613
_cell_length_b       5.369789702272613
_cell_length_c       4.389828171850124
_cell_angle_alpha    69.24482967881451
_cell_angle_beta     69.24482967881451
_cell_angle_gamma    70.78662063844564

_space_group_name_H-M_alt    "P 1"
_space_group_IT_number       1

loop_
  _space_group_symop_operation_xyz
  'x, y, z'

loop_
  _atom_site_type_symbol
  _atom_site_label
  _atom_site_symmetry_multiplicity
  _atom_site_fract_x
  _atom_site_fract_y
  _atom_site_fract_z
  _atom_site_occupancy
  O   O1        1.0  0.14465243386501214  0.6419016741544539  0.8421575100851033  1.0000
  O   O2        1.0  0.3202342155056286  0.12646594041829928  0.3549792178325504  1.0000
  O   O3        1.0  0.7669328597729255  0.672000774694304  0.0609325833812413  1.0000
  O   O4        1.0  0.061843234519529666  0.5356183654734628  0.22693360545743602  1.0000
  O   O5        1.0  0.5859284245054397  0.5181646686547001  0.9945528086957616  1.0000
  O   O6        1.0  0.9498852988796429  0.1642884404231566  0.8527780349361098  1.0000
  O   O7        1.0  0.6577481762637056  0.853073471979382  0.7370361151952949  1.0000
  O   O8        1.0  0.5127743295400009  0.4884861512103047  0.9306300969450305  1.0000
