data_image0
_chemical_formula_structural       O8
_chemical_formula_sum              "O8"
_cell_length_a       5.369789702272613
_cell_length_b       5.369789702272613
_cell_length_c       4.389828171850124
_cell_angle_alpha    69.24482967881451
_cell_angle_beta     69.24482967881451
_cell_angle_gamma    70.78662063844564

_space_group_name_H-M_alt    "P 1"
_space_group_IT_number       1

loop_
  _space_group_symop_operation_xyz
  'x, y, z'

loop_
  _atom_site_type_symbol
  _atom_site_label
  _atom_site_symmetry_multiplicity
  _atom_site_fract_x
  _atom_site_fract_y
  _atom_site_fract_z
  _atom_site_occupancy
  O   O1        1.0  0.22930156093762832  0.7278773808022976  0.5575716421111707  1.0000
  O   O2        1.0  0.0033199213309309528  0.3344864540284398  0.874281450744057  1.0000
  O   O3        1.0  0.9537312136343417  0.18352605008899658  0.36164623496281934  1.0000
  O   O4        1.0  0.8859422558293915  0.23256884608855444  0.35810948440987644  1.0000
  O   O5        1.0  0.8169953754248382  0.5348437525882588  0.49023476761588825  1.0000
  O   O6        1.0  0.6944320827251786  0.2646044207467657  0.19974142800249695  1.0000
  O   O7        1.0  0.9895335600702695  0.5048148577675544  0.34363908541299537  1.0000
  O   O8        1.0  0.4267459821098072  0.21727773876270184  0.8147758770847489  1.0000
