data_image0
_chemical_formula_structural       O8
_chemical_formula_sum              "O8"
_cell_length_a       5.369789702272613
_cell_length_b       5.369789702272613
_cell_length_c       4.389828171850124
_cell_angle_alpha    69.24482967881451
_cell_angle_beta     69.24482967881451
_cell_angle_gamma    70.78662063844564

_space_group_name_H-M_alt    "P 1"
_space_group_IT_number       1

loop_
  _space_group_symop_operation_xyz
  'x, y, z'

loop_
  _atom_site_type_symbol
  _atom_site_label
  _atom_site_symmetry_multiplicity
  _atom_site_fract_x
  _atom_site_fract_y
  _atom_site_fract_z
  _atom_site_occupancy
  O   O1        1.0  0.026403361096129174  0.0314654435971482  0.7360242319624835  1.0000
  O   O2        1.0  0.2767385571908392  0.5049096039949745  0.5151704881740926  1.0000
  O   O3        1.0  0.9802941908833347  0.5238845151375244  0.8759610536164253  1.0000
  O   O4        1.0  0.9282177729889632  0.7059249754330889  0.2514058201949254  1.0000
  O   O5        1.0  0.7642563169686447  0.8520348546776528  0.4750669428668495  1.0000
  O   O6        1.0  0.5070827579726149  0.5376123876312988  0.48138556501084917  1.0000
  O   O7        1.0  0.867645417058803  0.9979986516633232  0.6360310680135015  1.0000
  O   O8        1.0  0.6493608485632656  0.8461690679138378  0.02895507433002109  1.0000
