data_image0
_chemical_formula_structural       O8
_chemical_formula_sum              "O8"
_cell_length_a       5.369789702272613
_cell_length_b       5.369789702272613
_cell_length_c       4.389828171850124
_cell_angle_alpha    69.24482967881451
_cell_angle_beta     69.24482967881451
_cell_angle_gamma    70.78662063844564

_space_group_name_H-M_alt    "P 1"
_space_group_IT_number       1

loop_
  _space_group_symop_operation_xyz
  'x, y, z'

loop_
  _atom_site_type_symbol
  _atom_site_label
  _atom_site_symmetry_multiplicity
  _atom_site_fract_x
  _atom_site_fract_y
  _atom_site_fract_z
  _atom_site_occupancy
  O   O1        1.0  0.9162582889571524  0.6129841033360037  0.07018913911419133  1.0000
  O   O2        1.0  0.7311300358904163  0.16168324496021214  0.07070881982050992  1.0000
  O   O3        1.0  0.23073443185377585  0.81529344921681  0.6020813786614028  1.0000
  O   O4        1.0  0.3074811779464497  0.6897900010747229  0.589134508951874  1.0000
  O   O5        1.0  0.5811500417785656  0.7120026336462928  0.4826212208163696  1.0000
  O   O6        1.0  0.11529217264332203  0.048560251145712385  0.4248935284370674  1.0000
  O   O7        1.0  0.6825608827437009  0.5824960044248257  0.6403978518546225  1.0000
  O   O8        1.0  0.4353951856237295  0.3771903292856452  0.1199728208621984  1.0000
