data_image0
_chemical_formula_structural       O8
_chemical_formula_sum              "O8"
_cell_length_a       5.369789702272613
_cell_length_b       5.369789702272613
_cell_length_c       4.389828171850124
_cell_angle_alpha    69.24482967881451
_cell_angle_beta     69.24482967881451
_cell_angle_gamma    70.78662063844564

_space_group_name_H-M_alt    "P 1"
_space_group_IT_number       1

loop_
  _space_group_symop_operation_xyz
  'x, y, z'

loop_
  _atom_site_type_symbol
  _atom_site_label
  _atom_site_symmetry_multiplicity
  _atom_site_fract_x
  _atom_site_fract_y
  _atom_site_fract_z
  _atom_site_occupancy
  O   O1        1.0  0.6698070268935226  0.600504036398462  0.3791772058179532  1.0000
  O   O2        1.0  0.32657051814647353  0.1335867730854723  0.04449740363887145  1.0000
  O   O3        1.0  0.13033679009142674  0.5240172547097401  0.12477181248303992  1.0000
  O   O4        1.0  0.8497922966652283  0.836522720801157  0.5917907007452929  1.0000
  O   O5        1.0  0.25718836464310435  0.16091020663156996  0.9667483957549905  1.0000
  O   O6        1.0  0.9620342645276416  0.973131605765083  0.2407475299050077  1.0000
  O   O7        1.0  0.41225153827569017  0.5489886031786071  0.3788763120860068  1.0000
  O   O8        1.0  0.3920212475160554  0.2223390620950232  0.27338959539374663  1.0000
