data_image0
_chemical_formula_structural       O8
_chemical_formula_sum              "O8"
_cell_length_a       5.369789702272613
_cell_length_b       5.369789702272613
_cell_length_c       4.389828171850124
_cell_angle_alpha    69.24482967881451
_cell_angle_beta     69.24482967881451
_cell_angle_gamma    70.78662063844564

_space_group_name_H-M_alt    "P 1"
_space_group_IT_number       1

loop_
  _space_group_symop_operation_xyz
  'x, y, z'

loop_
  _atom_site_type_symbol
  _atom_site_label
  _atom_site_symmetry_multiplicity
  _atom_site_fract_x
  _atom_site_fract_y
  _atom_site_fract_z
  _atom_site_occupancy
  O   O1        1.0  0.8367117963477583  0.6084435648685815  0.6435515006133876  1.0000
  O   O2        1.0  0.6477422342146468  0.0795057685530125  0.6086783074144009  1.0000
  O   O3        1.0  0.6447738095033202  0.18351628699571165  0.08065542011046034  1.0000
  O   O4        1.0  0.6363383339160755  0.7660948927978226  0.5104066352344532  1.0000
  O   O5        1.0  0.21946746431203934  0.32800378068082736  0.2806546057283157  1.0000
  O   O6        1.0  0.08728273479153259  0.40484206322367555  0.09818520984640067  1.0000
  O   O7        1.0  0.4232217208667244  0.8966484486729911  0.8451830699629923  1.0000
  O   O8        1.0  0.5044625254413617  0.7329445150110674  0.932685069826988  1.0000
