data_image0
_chemical_formula_structural       O8
_chemical_formula_sum              "O8"
_cell_length_a       5.369789702272613
_cell_length_b       5.369789702272613
_cell_length_c       4.389828171850124
_cell_angle_alpha    69.24482967881451
_cell_angle_beta     69.24482967881451
_cell_angle_gamma    70.78662063844564

_space_group_name_H-M_alt    "P 1"
_space_group_IT_number       1

loop_
  _space_group_symop_operation_xyz
  'x, y, z'

loop_
  _atom_site_type_symbol
  _atom_site_label
  _atom_site_symmetry_multiplicity
  _atom_site_fract_x
  _atom_site_fract_y
  _atom_site_fract_z
  _atom_site_occupancy
  O   O1        1.0  0.17653939610733005  0.09481046969411722  0.02940901259933071  1.0000
  O   O2        1.0  0.9021537292155628  0.18627063779027964  0.9044804021023722  1.0000
  O   O3        1.0  0.549716396966879  0.22757363981403245  0.08060331587872582  1.0000
  O   O4        1.0  0.1724839161842624  0.8281975458948381  0.11413372961158075  1.0000
  O   O5        1.0  0.6532525237700586  0.11905839036548116  0.30481804718371563  1.0000
  O   O6        1.0  0.7939143952710168  0.5175790835850478  0.3006098281699181  1.0000
  O   O7        1.0  0.9959371028641506  0.43565919980297174  0.02432998698347788  1.0000
  O   O8        1.0  0.7560047990677603  0.5908509987432932  0.24161502958003211  1.0000
