data_image0
_chemical_formula_structural       O8
_chemical_formula_sum              "O8"
_cell_length_a       5.369789702272613
_cell_length_b       5.369789702272613
_cell_length_c       4.389828171850124
_cell_angle_alpha    69.24482967881451
_cell_angle_beta     69.24482967881451
_cell_angle_gamma    70.78662063844564

_space_group_name_H-M_alt    "P 1"
_space_group_IT_number       1

loop_
  _space_group_symop_operation_xyz
  'x, y, z'

loop_
  _atom_site_type_symbol
  _atom_site_label
  _atom_site_symmetry_multiplicity
  _atom_site_fract_x
  _atom_site_fract_y
  _atom_site_fract_z
  _atom_site_occupancy
  O   O1        1.0  0.15567114701281914  0.6430706265212045  0.371045263437658  1.0000
  O   O2        1.0  0.9996006015357963  0.9204840116297106  0.3872957502467287  1.0000
  O   O3        1.0  0.7758233805486725  0.19860797834750343  0.9923523808871053  1.0000
  O   O4        1.0  0.48568763739864096  0.6357826184048969  0.5006568264816025  1.0000
  O   O5        1.0  0.5264575475814013  0.4101599820708799  0.4465519895976513  1.0000
  O   O6        1.0  0.7270220440214885  0.056766512618793286  0.11690632427522729  1.0000
  O   O7        1.0  0.34137950352024404  0.060880059063173064  0.42075430002022074  1.0000
  O   O8        1.0  0.9883598810153771  0.07424848746740764  0.7644362929510038  1.0000
