data_image0
_chemical_formula_structural       O8
_chemical_formula_sum              "O8"
_cell_length_a       5.369789702272613
_cell_length_b       5.369789702272613
_cell_length_c       4.389828171850124
_cell_angle_alpha    69.24482967881451
_cell_angle_beta     69.24482967881451
_cell_angle_gamma    70.78662063844564

_space_group_name_H-M_alt    "P 1"
_space_group_IT_number       1

loop_
  _space_group_symop_operation_xyz
  'x, y, z'

loop_
  _atom_site_type_symbol
  _atom_site_label
  _atom_site_symmetry_multiplicity
  _atom_site_fract_x
  _atom_site_fract_y
  _atom_site_fract_z
  _atom_site_occupancy
  O   O1        1.0  0.6505974499243692  0.861776053540499  0.3683038251679278  1.0000
  O   O2        1.0  0.22788923555122054  0.10257662751566698  0.5489015873100733  1.0000
  O   O3        1.0  0.405916627314312  0.05669458487294321  0.5532585748381607  1.0000
  O   O4        1.0  0.3468429256383807  0.3382247500650486  0.11122576862774602  1.0000
  O   O5        1.0  0.9555067610419634  0.1647305501538554  0.2247388353740689  1.0000
  O   O6        1.0  0.015862821197615062  0.45163462770934615  0.6108506662718582  1.0000
  O   O7        1.0  0.08948821587266487  0.17745915246992183  0.34772078980579746  1.0000
  O   O8        1.0  0.3078977611330167  0.8469038421354105  0.23499899511771138  1.0000
