data_image0
_chemical_formula_structural       O8
_chemical_formula_sum              "O8"
_cell_length_a       5.369789702272613
_cell_length_b       5.369789702272613
_cell_length_c       4.389828171850124
_cell_angle_alpha    69.24482967881451
_cell_angle_beta     69.24482967881451
_cell_angle_gamma    70.78662063844564

_space_group_name_H-M_alt    "P 1"
_space_group_IT_number       1

loop_
  _space_group_symop_operation_xyz
  'x, y, z'

loop_
  _atom_site_type_symbol
  _atom_site_label
  _atom_site_symmetry_multiplicity
  _atom_site_fract_x
  _atom_site_fract_y
  _atom_site_fract_z
  _atom_site_occupancy
  O   O1        1.0  0.6856951708424601  0.38539477576343195  0.19945026981185832  1.0000
  O   O2        1.0  0.7736775027420997  0.08361268822520884  0.5174539402694833  1.0000
  O   O3        1.0  0.01927867315485443  0.8396969039159217  0.9968697681252152  1.0000
  O   O4        1.0  0.4757078373251922  0.2970225555037391  0.4454496135045076  1.0000
  O   O5        1.0  0.020101242508929824  0.13949935741179598  0.4202042778144701  1.0000
  O   O6        1.0  0.9733412940653556  0.6173894000052442  0.19544499239946767  1.0000
  O   O7        1.0  0.17117006743090424  0.17003080967319043  0.9698998679301738  1.0000
  O   O8        1.0  0.8810282412956809  0.46735320781310574  0.2552270493795419  1.0000
