data_image0
_chemical_formula_structural       O8
_chemical_formula_sum              "O8"
_cell_length_a       5.369789702272613
_cell_length_b       5.369789702272613
_cell_length_c       4.389828171850124
_cell_angle_alpha    69.24482967881451
_cell_angle_beta     69.24482967881451
_cell_angle_gamma    70.78662063844564

_space_group_name_H-M_alt    "P 1"
_space_group_IT_number       1

loop_
  _space_group_symop_operation_xyz
  'x, y, z'

loop_
  _atom_site_type_symbol
  _atom_site_label
  _atom_site_symmetry_multiplicity
  _atom_site_fract_x
  _atom_site_fract_y
  _atom_site_fract_z
  _atom_site_occupancy
  O   O1        1.0  0.9366498458873291  0.9101571220484495  0.3367566943252349  1.0000
  O   O2        1.0  0.5108080340668844  0.5155491558834626  0.5507295385780893  1.0000
  O   O3        1.0  0.7672289578786149  0.9013502331647665  0.4799452858544129  1.0000
  O   O4        1.0  0.2636875453910008  0.3833314900075768  0.5065331515393217  1.0000
  O   O5        1.0  0.5643749605486796  0.5720696242007044  0.1609204833365685  1.0000
  O   O6        1.0  0.6828329181149151  0.6916442483032412  0.4855940303831936  1.0000
  O   O7        1.0  0.46887017057578717  0.9140479587203707  0.5227257076736436  1.0000
  O   O8        1.0  0.8055481236036712  0.1118501289477083  0.9567959194896432  1.0000
