data_image0
_chemical_formula_structural       O8
_chemical_formula_sum              "O8"
_cell_length_a       5.369789702272613
_cell_length_b       5.369789702272613
_cell_length_c       4.389828171850124
_cell_angle_alpha    69.24482967881451
_cell_angle_beta     69.24482967881451
_cell_angle_gamma    70.78662063844564

_space_group_name_H-M_alt    "P 1"
_space_group_IT_number       1

loop_
  _space_group_symop_operation_xyz
  'x, y, z'

loop_
  _atom_site_type_symbol
  _atom_site_label
  _atom_site_symmetry_multiplicity
  _atom_site_fract_x
  _atom_site_fract_y
  _atom_site_fract_z
  _atom_site_occupancy
  O   O1        1.0  0.5443974637646676  0.7741278712840867  0.5914634435383306  1.0000
  O   O2        1.0  0.49862602385343635  0.93756416026857  0.4981380033033176  1.0000
  O   O3        1.0  0.23271456881168007  0.45436306599279064  0.1802284699505421  1.0000
  O   O4        1.0  0.01156565280304278  0.5403275634873701  0.5537355662349235  1.0000
  O   O5        1.0  0.7082281579229868  0.335370704856814  0.7264588857663341  1.0000
  O   O6        1.0  0.17903257905485503  0.39982825726233173  0.6359647901164571  1.0000
  O   O7        1.0  0.2787648401231735  0.5124589146389429  0.12485862982236817  1.0000
  O   O8        1.0  0.5466725586815642  0.045959231484062  0.6891520017949162  1.0000
