data_image0
_chemical_formula_structural       O8
_chemical_formula_sum              "O8"
_cell_length_a       5.369789702272613
_cell_length_b       5.369789702272613
_cell_length_c       4.389828171850124
_cell_angle_alpha    69.24482967881451
_cell_angle_beta     69.24482967881451
_cell_angle_gamma    70.78662063844564

_space_group_name_H-M_alt    "P 1"
_space_group_IT_number       1

loop_
  _space_group_symop_operation_xyz
  'x, y, z'

loop_
  _atom_site_type_symbol
  _atom_site_label
  _atom_site_symmetry_multiplicity
  _atom_site_fract_x
  _atom_site_fract_y
  _atom_site_fract_z
  _atom_site_occupancy
  O   O1        1.0  0.4784789851582545  0.880968005752532  0.45108599002267624  1.0000
  O   O2        1.0  0.8731156589711251  0.9938222449702305  0.294499391202244  1.0000
  O   O3        1.0  0.7848762780911898  0.7847220774547665  0.8136177301131156  1.0000
  O   O4        1.0  0.4998340592654813  0.9133547313445067  0.9010727546134536  1.0000
  O   O5        1.0  0.15553908892708268  0.22224720020678035  0.7891353091903497  1.0000
  O   O6        1.0  0.8368388481807969  0.5242024537277921  0.7835165752109177  1.0000
  O   O7        1.0  0.8525668449658959  0.2022494431793298  0.36495465370536806  1.0000
  O   O8        1.0  0.5187522601830459  0.4784338587905408  0.6021165246551696  1.0000
