data_image0
_chemical_formula_structural       O8
_chemical_formula_sum              "O8"
_cell_length_a       5.369789702272613
_cell_length_b       5.369789702272613
_cell_length_c       4.389828171850124
_cell_angle_alpha    69.24482967881451
_cell_angle_beta     69.24482967881451
_cell_angle_gamma    70.78662063844564

_space_group_name_H-M_alt    "P 1"
_space_group_IT_number       1

loop_
  _space_group_symop_operation_xyz
  'x, y, z'

loop_
  _atom_site_type_symbol
  _atom_site_label
  _atom_site_symmetry_multiplicity
  _atom_site_fract_x
  _atom_site_fract_y
  _atom_site_fract_z
  _atom_site_occupancy
  O   O1        1.0  0.7413851181159927  0.5335618091692975  0.08740274528752678  1.0000
  O   O2        1.0  0.08979971446936474  0.5278940906661944  0.03673694795534033  1.0000
  O   O3        1.0  0.4234749026863973  0.3762168697951651  0.10209084654457712  1.0000
  O   O4        1.0  0.14213702396543226  0.5721543354035212  0.9406813340300104  1.0000
  O   O5        1.0  0.19402751805335897  0.7350947870003672  0.4536577055495741  1.0000
  O   O6        1.0  0.6839781526996171  0.41989932554896825  0.45029319171118587  1.0000
  O   O7        1.0  0.9326554695278677  0.35919558233259963  0.06414878295048254  1.0000
  O   O8        1.0  0.7925422403322777  0.47598358599432977  0.8649872210720844  1.0000
