data_image0
_chemical_formula_structural       O8
_chemical_formula_sum              "O8"
_cell_length_a       5.369789702272613
_cell_length_b       5.369789702272613
_cell_length_c       4.389828171850124
_cell_angle_alpha    69.24482967881451
_cell_angle_beta     69.24482967881451
_cell_angle_gamma    70.78662063844564

_space_group_name_H-M_alt    "P 1"
_space_group_IT_number       1

loop_
  _space_group_symop_operation_xyz
  'x, y, z'

loop_
  _atom_site_type_symbol
  _atom_site_label
  _atom_site_symmetry_multiplicity
  _atom_site_fract_x
  _atom_site_fract_y
  _atom_site_fract_z
  _atom_site_occupancy
  O   O1        1.0  0.1708823287771999  0.8747868034825856  0.4874575114837256  1.0000
  O   O2        1.0  0.45763685508307717  0.578158579038492  0.6067018842240302  1.0000
  O   O3        1.0  0.5201375115194011  0.26148336879751355  0.09307858154156179  1.0000
  O   O4        1.0  0.6055718227851159  0.7530267575598231  0.45515792394330745  1.0000
  O   O5        1.0  0.8399028559018795  0.023948430425164702  0.13607865618490678  1.0000
  O   O6        1.0  0.11650663773055925  0.09665942659411897  0.8452914563741558  1.0000
  O   O7        1.0  0.04047908758594687  0.24713814786127308  0.5326695005061808  1.0000
  O   O8        1.0  0.24888519885928417  0.16479824546391564  0.843564014387649  1.0000
