data_image0
_chemical_formula_structural       O8
_chemical_formula_sum              "O8"
_cell_length_a       5.369789702272613
_cell_length_b       5.369789702272613
_cell_length_c       4.389828171850124
_cell_angle_alpha    69.24482967881451
_cell_angle_beta     69.24482967881451
_cell_angle_gamma    70.78662063844564

_space_group_name_H-M_alt    "P 1"
_space_group_IT_number       1

loop_
  _space_group_symop_operation_xyz
  'x, y, z'

loop_
  _atom_site_type_symbol
  _atom_site_label
  _atom_site_symmetry_multiplicity
  _atom_site_fract_x
  _atom_site_fract_y
  _atom_site_fract_z
  _atom_site_occupancy
  O   O1        1.0  0.07684972608349838  0.5179582607454103  0.9847138978032239  1.0000
  O   O2        1.0  0.4160959480811215  0.9452204014066723  0.01179618112831804  1.0000
  O   O3        1.0  0.21363139106343  0.748903207371086  0.9129363302887192  1.0000
  O   O4        1.0  0.2858793976446554  0.14786647813242282  0.42268866848871056  1.0000
  O   O5        1.0  0.7823288769910022  0.2723602239177847  0.8702517183485092  1.0000
  O   O6        1.0  0.43831544078827633  0.5520913713426907  0.6530218201322455  1.0000
  O   O7        1.0  0.45066072144410185  0.7507039555116926  0.40380404254950975  1.0000
  O   O8        1.0  0.3362374902086813  0.06489568974054549  0.7407874198515643  1.0000
