data_image0
_chemical_formula_structural       O8
_chemical_formula_sum              "O8"
_cell_length_a       5.369789702272613
_cell_length_b       5.369789702272613
_cell_length_c       4.389828171850124
_cell_angle_alpha    69.24482967881451
_cell_angle_beta     69.24482967881451
_cell_angle_gamma    70.78662063844564

_space_group_name_H-M_alt    "P 1"
_space_group_IT_number       1

loop_
  _space_group_symop_operation_xyz
  'x, y, z'

loop_
  _atom_site_type_symbol
  _atom_site_label
  _atom_site_symmetry_multiplicity
  _atom_site_fract_x
  _atom_site_fract_y
  _atom_site_fract_z
  _atom_site_occupancy
  O   O1        1.0  0.5073145268316956  0.7099402289821732  0.8653371790544853  1.0000
  O   O2        1.0  0.9714338215123917  0.09405017649202563  0.9797511862150543  1.0000
  O   O3        1.0  0.6233774981360476  0.4732285783660046  0.9169388529418967  1.0000
  O   O4        1.0  0.20114203800557107  0.00344885923416971  0.5226362333041408  1.0000
  O   O5        1.0  0.6297521100623484  0.736848187612221  0.7389941923827337  1.0000
  O   O6        1.0  0.997674470555971  0.733589769127228  0.2588738674141595  1.0000
  O   O7        1.0  0.3279802028285488  0.4145686887482043  0.5172972489531844  1.0000
  O   O8        1.0  0.7413271229889489  0.8343255790643234  0.20017032637645826  1.0000
