data_image0
_chemical_formula_structural       O8
_chemical_formula_sum              "O8"
_cell_length_a       5.369789702272613
_cell_length_b       5.369789702272613
_cell_length_c       4.389828171850124
_cell_angle_alpha    69.24482967881451
_cell_angle_beta     69.24482967881451
_cell_angle_gamma    70.78662063844564

_space_group_name_H-M_alt    "P 1"
_space_group_IT_number       1

loop_
  _space_group_symop_operation_xyz
  'x, y, z'

loop_
  _atom_site_type_symbol
  _atom_site_label
  _atom_site_symmetry_multiplicity
  _atom_site_fract_x
  _atom_site_fract_y
  _atom_site_fract_z
  _atom_site_occupancy
  O   O1        1.0  0.5389315214686761  0.3790110538435272  0.5921791558210003  1.0000
  O   O2        1.0  0.17859419393904474  0.6885586012211462  0.23415342631898994  1.0000
  O   O3        1.0  0.051240639506829666  0.9001049344945073  0.1851050426622507  1.0000
  O   O4        1.0  0.8164873681985227  0.6597247963521546  0.6854378131159944  1.0000
  O   O5        1.0  0.8599079641537379  0.24816895656149995  0.5359214956341773  1.0000
  O   O6        1.0  0.17051798802181395  0.39095838298599794  0.9354354458074603  1.0000
  O   O7        1.0  0.2682596451779631  0.7171954701612591  0.21619175824671544  1.0000
  O   O8        1.0  0.11606263696241115  0.01627751817033385  0.6155755807294057  1.0000
