data_image0
_chemical_formula_structural       O8
_chemical_formula_sum              "O8"
_cell_length_a       5.369789702272613
_cell_length_b       5.369789702272613
_cell_length_c       4.389828171850124
_cell_angle_alpha    69.24482967881451
_cell_angle_beta     69.24482967881451
_cell_angle_gamma    70.78662063844564

_space_group_name_H-M_alt    "P 1"
_space_group_IT_number       1

loop_
  _space_group_symop_operation_xyz
  'x, y, z'

loop_
  _atom_site_type_symbol
  _atom_site_label
  _atom_site_symmetry_multiplicity
  _atom_site_fract_x
  _atom_site_fract_y
  _atom_site_fract_z
  _atom_site_occupancy
  O   O1        1.0  0.25464416586781  0.9463606287667776  0.6474901159255033  1.0000
  O   O2        1.0  0.5208995063601378  0.9869547006311521  0.44572950126018185  1.0000
  O   O3        1.0  0.2819250138723923  0.2822903677817834  0.8758731037909087  1.0000
  O   O4        1.0  0.8403846887054192  0.4147997132517318  0.5817683889840772  1.0000
  O   O5        1.0  0.31112662033753224  0.12791657210406981  0.283686409595866  1.0000
  O   O6        1.0  0.2979478786614038  0.48048616291676893  0.8816911961235019  1.0000
  O   O7        1.0  0.694659906411637  0.07398279799080854  0.13178605563883394  1.0000
  O   O8        1.0  0.7984114312373833  0.6872087092999353  0.1519753126796246  1.0000
