data_image0
_chemical_formula_structural       O8
_chemical_formula_sum              "O8"
_cell_length_a       5.369789702272613
_cell_length_b       5.369789702272613
_cell_length_c       4.389828171850124
_cell_angle_alpha    69.24482967881451
_cell_angle_beta     69.24482967881451
_cell_angle_gamma    70.78662063844564

_space_group_name_H-M_alt    "P 1"
_space_group_IT_number       1

loop_
  _space_group_symop_operation_xyz
  'x, y, z'

loop_
  _atom_site_type_symbol
  _atom_site_label
  _atom_site_symmetry_multiplicity
  _atom_site_fract_x
  _atom_site_fract_y
  _atom_site_fract_z
  _atom_site_occupancy
  O   O1        1.0  0.6019616709740312  0.8133481576982966  0.7005974987752239  1.0000
  O   O2        1.0  0.5452699734375841  0.627122224370332  0.5731057634113839  1.0000
  O   O3        1.0  0.1883997122046388  0.1938105827128851  0.7065663471168406  1.0000
  O   O4        1.0  0.48377087892165704  0.318780660557481  0.9813399742394182  1.0000
  O   O5        1.0  0.28424474506135766  0.20279728851764034  0.5922223356794163  1.0000
  O   O6        1.0  0.011646951110122927  0.8039133687232791  0.8168812875158693  1.0000
  O   O7        1.0  0.8612199088558867  0.8072023761555798  0.027258826503505418  1.0000
  O   O8        1.0  0.023487829224222878  0.23302488632129048  0.6020274276642112  1.0000
