data_image0
_chemical_formula_structural       O8
_chemical_formula_sum              "O8"
_cell_length_a       5.369789702272613
_cell_length_b       5.369789702272613
_cell_length_c       4.389828171850124
_cell_angle_alpha    69.24482967881451
_cell_angle_beta     69.24482967881451
_cell_angle_gamma    70.78662063844564

_space_group_name_H-M_alt    "P 1"
_space_group_IT_number       1

loop_
  _space_group_symop_operation_xyz
  'x, y, z'

loop_
  _atom_site_type_symbol
  _atom_site_label
  _atom_site_symmetry_multiplicity
  _atom_site_fract_x
  _atom_site_fract_y
  _atom_site_fract_z
  _atom_site_occupancy
  O   O1        1.0  0.5402256321656187  0.649602875510924  0.2974409635782962  1.0000
  O   O2        1.0  0.05329111231405648  0.7581647584796443  0.056774449501858726  1.0000
  O   O3        1.0  0.3804121337271331  0.11312022605780925  0.24022090401751228  1.0000
  O   O4        1.0  0.5259624865692025  0.4598807191546843  0.15356797049567916  1.0000
  O   O5        1.0  0.6009992097600971  0.3328907689732006  0.9741731145529116  1.0000
  O   O6        1.0  0.10983205131549312  0.744974825176314  0.028580570271667938  1.0000
  O   O7        1.0  0.9341640227161392  0.6026106040454309  0.6490500662428573  1.0000
  O   O8        1.0  0.855115192738289  0.3387549571753521  0.6001909668847745  1.0000
