data_image0
_chemical_formula_structural       O8
_chemical_formula_sum              "O8"
_cell_length_a       5.369789702272613
_cell_length_b       5.369789702272613
_cell_length_c       4.389828171850124
_cell_angle_alpha    69.24482967881451
_cell_angle_beta     69.24482967881451
_cell_angle_gamma    70.78662063844564

_space_group_name_H-M_alt    "P 1"
_space_group_IT_number       1

loop_
  _space_group_symop_operation_xyz
  'x, y, z'

loop_
  _atom_site_type_symbol
  _atom_site_label
  _atom_site_symmetry_multiplicity
  _atom_site_fract_x
  _atom_site_fract_y
  _atom_site_fract_z
  _atom_site_occupancy
  O   O1        1.0  0.4082241269442637  0.7489909480032679  0.8778175278476512  1.0000
  O   O2        1.0  0.9409429965213008  0.06919997055617699  0.7648019353907785  1.0000
  O   O3        1.0  0.5822735683831297  0.41282752344621443  0.38670003272358144  1.0000
  O   O4        1.0  0.9050540553993227  0.3585533816279707  0.5783624569854027  1.0000
  O   O5        1.0  0.7622230633662994  0.06282017294759612  0.13618392653220468  1.0000
  O   O6        1.0  0.7881264911016582  0.8896150755765504  0.07914673211318757  1.0000
  O   O7        1.0  0.11522930234090545  0.7922974151151436  0.716153087236961  1.0000
  O   O8        1.0  0.49792631032173773  0.6656951620846613  0.4608337562234084  1.0000
