data_image0
_chemical_formula_structural       O8
_chemical_formula_sum              "O8"
_cell_length_a       5.369789702272613
_cell_length_b       5.369789702272613
_cell_length_c       4.389828171850124
_cell_angle_alpha    69.24482967881451
_cell_angle_beta     69.24482967881451
_cell_angle_gamma    70.78662063844564

_space_group_name_H-M_alt    "P 1"
_space_group_IT_number       1

loop_
  _space_group_symop_operation_xyz
  'x, y, z'

loop_
  _atom_site_type_symbol
  _atom_site_label
  _atom_site_symmetry_multiplicity
  _atom_site_fract_x
  _atom_site_fract_y
  _atom_site_fract_z
  _atom_site_occupancy
  O   O1        1.0  0.7685127093321134  0.5122456133452671  0.011032059436828945  1.0000
  O   O2        1.0  0.6546388653512096  0.1214883393171391  0.26889348234704613  1.0000
  O   O3        1.0  0.04023569912649094  0.518742441074842  0.15899721697680036  1.0000
  O   O4        1.0  0.8974867498611316  0.6655775159031752  0.489902060829408  1.0000
  O   O5        1.0  0.09913670410663755  0.896150619374227  0.4542262316345038  1.0000
  O   O6        1.0  0.9550899515179196  0.26103650880912  0.6567300620770355  1.0000
  O   O7        1.0  0.1520459404477421  0.6376087453548749  0.015444038348903177  1.0000
  O   O8        1.0  0.4328528472636215  0.3871496108817156  0.9447751433505047  1.0000
