data_image0
_chemical_formula_structural       O8
_chemical_formula_sum              "O8"
_cell_length_a       5.369789702272613
_cell_length_b       5.369789702272613
_cell_length_c       4.389828171850124
_cell_angle_alpha    69.24482967881451
_cell_angle_beta     69.24482967881451
_cell_angle_gamma    70.78662063844564

_space_group_name_H-M_alt    "P 1"
_space_group_IT_number       1

loop_
  _space_group_symop_operation_xyz
  'x, y, z'

loop_
  _atom_site_type_symbol
  _atom_site_label
  _atom_site_symmetry_multiplicity
  _atom_site_fract_x
  _atom_site_fract_y
  _atom_site_fract_z
  _atom_site_occupancy
  O   O1        1.0  0.5438941302547633  0.4201890315177721  0.2694620418738225  1.0000
  O   O2        1.0  0.3478311865395973  0.9372850304184848  0.7160932995338882  1.0000
  O   O3        1.0  0.8244023425851097  0.27199281739419945  0.4205009634412207  1.0000
  O   O4        1.0  0.1925126072681138  0.4260196735044559  0.3923822412555289  1.0000
  O   O5        1.0  0.03205838602922029  0.4605894338891403  0.9400712164946725  1.0000
  O   O6        1.0  0.2732225890190918  0.36114511912784586  0.6895864246449257  1.0000
  O   O7        1.0  0.672128906075546  0.7127850581568191  0.13538823138431155  1.0000
  O   O8        1.0  0.11395171443844987  0.4099935871652365  0.43651535915000395  1.0000
