data_image0
_chemical_formula_structural       O8
_chemical_formula_sum              "O8"
_cell_length_a       5.369789702272613
_cell_length_b       5.369789702272613
_cell_length_c       4.389828171850124
_cell_angle_alpha    69.24482967881451
_cell_angle_beta     69.24482967881451
_cell_angle_gamma    70.78662063844564

_space_group_name_H-M_alt    "P 1"
_space_group_IT_number       1

loop_
  _space_group_symop_operation_xyz
  'x, y, z'

loop_
  _atom_site_type_symbol
  _atom_site_label
  _atom_site_symmetry_multiplicity
  _atom_site_fract_x
  _atom_site_fract_y
  _atom_site_fract_z
  _atom_site_occupancy
  O   O1        1.0  0.7067326274703252  0.8589759635482146  0.21644687732781787  1.0000
  O   O2        1.0  0.44108897135353686  0.11463806666320409  0.20520807251205042  1.0000
  O   O3        1.0  0.8918340814315684  0.5978876512199989  0.013681998276044993  1.0000
  O   O4        1.0  0.9752557160311175  0.8631931677715547  0.6284526525570584  1.0000
  O   O5        1.0  0.5626043486453369  0.8997684397844736  0.1259625422577919  1.0000
  O   O6        1.0  0.02237083513939986  0.5911492607389732  0.4604628384871283  1.0000
  O   O7        1.0  0.7691846784231338  0.3054465546807137  0.006188032018975775  1.0000
  O   O8        1.0  0.6309282492979307  0.7689402952201616  0.34359728807651635  1.0000
