data_image0
_chemical_formula_structural       O8
_chemical_formula_sum              "O8"
_cell_length_a       5.369789702272613
_cell_length_b       5.369789702272613
_cell_length_c       4.389828171850124
_cell_angle_alpha    69.24482967881451
_cell_angle_beta     69.24482967881451
_cell_angle_gamma    70.78662063844564

_space_group_name_H-M_alt    "P 1"
_space_group_IT_number       1

loop_
  _space_group_symop_operation_xyz
  'x, y, z'

loop_
  _atom_site_type_symbol
  _atom_site_label
  _atom_site_symmetry_multiplicity
  _atom_site_fract_x
  _atom_site_fract_y
  _atom_site_fract_z
  _atom_site_occupancy
  O   O1        1.0  0.3081551737613708  0.3835345505614107  0.48987922775931736  1.0000
  O   O2        1.0  0.8568177872099074  0.8167475840536085  0.3368340642182126  1.0000
  O   O3        1.0  0.791900779058544  0.5641582574579687  0.3371646558450223  1.0000
  O   O4        1.0  0.2926879690978126  0.6197932764953187  0.6365814767481259  1.0000
  O   O5        1.0  0.8948381466725017  0.2562923559540309  0.3583464542464263  1.0000
  O   O6        1.0  0.6570486761407146  0.8625756155783453  0.29978490303474814  1.0000
  O   O7        1.0  0.5153736974165417  0.33448449922248713  0.24579757739509134  1.0000
  O   O8        1.0  0.6831793107242383  0.1624141008997153  0.2956107172551654  1.0000
