data_image0
_chemical_formula_structural       O8
_chemical_formula_sum              "O8"
_cell_length_a       5.369789702272613
_cell_length_b       5.369789702272613
_cell_length_c       4.389828171850124
_cell_angle_alpha    69.24482967881451
_cell_angle_beta     69.24482967881451
_cell_angle_gamma    70.78662063844564

_space_group_name_H-M_alt    "P 1"
_space_group_IT_number       1

loop_
  _space_group_symop_operation_xyz
  'x, y, z'

loop_
  _atom_site_type_symbol
  _atom_site_label
  _atom_site_symmetry_multiplicity
  _atom_site_fract_x
  _atom_site_fract_y
  _atom_site_fract_z
  _atom_site_occupancy
  O   O1        1.0  0.33644681755989936  0.8345663896311635  0.7859889687789234  1.0000
  O   O2        1.0  0.9147976883203803  0.5399814964405003  0.5980259962473014  1.0000
  O   O3        1.0  0.43667204433163676  0.051487996224572896  0.49007896162524034  1.0000
  O   O4        1.0  0.3323359695235517  0.6654600755818354  0.46573538227900446  1.0000
  O   O5        1.0  0.4765907620492307  0.01174975680108048  0.549105988562669  1.0000
  O   O6        1.0  0.6107308725493574  0.531444029111519  0.8344884852074728  1.0000
  O   O7        1.0  0.38114462737088317  0.6655258303232259  0.11476541300713872  1.0000
  O   O8        1.0  0.5112827470542065  0.6997847360422877  0.1618098729851889  1.0000
