data_image0
_chemical_formula_structural       O8
_chemical_formula_sum              "O8"
_cell_length_a       5.369789702272613
_cell_length_b       5.369789702272613
_cell_length_c       4.389828171850124
_cell_angle_alpha    69.24482967881451
_cell_angle_beta     69.24482967881451
_cell_angle_gamma    70.78662063844564

_space_group_name_H-M_alt    "P 1"
_space_group_IT_number       1

loop_
  _space_group_symop_operation_xyz
  'x, y, z'

loop_
  _atom_site_type_symbol
  _atom_site_label
  _atom_site_symmetry_multiplicity
  _atom_site_fract_x
  _atom_site_fract_y
  _atom_site_fract_z
  _atom_site_occupancy
  O   O1        1.0  0.818547029898518  0.11525642798396207  0.9068333613229278  1.0000
  O   O2        1.0  0.17895559506437309  0.5442365942204432  0.46020992202046784  1.0000
  O   O3        1.0  0.024014287869231765  0.9841970378071352  0.9384397419204742  1.0000
  O   O4        1.0  0.7469666205845229  0.9759906196194057  0.9575264019769882  1.0000
  O   O5        1.0  0.14982765359449246  0.644157081511187  0.28343407623312444  1.0000
  O   O6        1.0  0.5272114861741883  0.980867060372649  0.7181404005926808  1.0000
  O   O7        1.0  0.40412536834902113  0.15537809029433447  0.6058596306045914  1.0000
  O   O8        1.0  0.1503509436886965  0.5999165615564088  0.12955646072058613  1.0000
