data_image0
_chemical_formula_structural       O8
_chemical_formula_sum              "O8"
_cell_length_a       5.369789702272613
_cell_length_b       5.369789702272613
_cell_length_c       4.389828171850124
_cell_angle_alpha    69.24482967881451
_cell_angle_beta     69.24482967881451
_cell_angle_gamma    70.78662063844564

_space_group_name_H-M_alt    "P 1"
_space_group_IT_number       1

loop_
  _space_group_symop_operation_xyz
  'x, y, z'

loop_
  _atom_site_type_symbol
  _atom_site_label
  _atom_site_symmetry_multiplicity
  _atom_site_fract_x
  _atom_site_fract_y
  _atom_site_fract_z
  _atom_site_occupancy
  O   O1        1.0  0.5545249331016251  0.9676053941434901  0.6166897734447616  1.0000
  O   O2        1.0  0.19995496344616015  0.5403328989272129  0.3834544431867499  1.0000
  O   O3        1.0  0.15087949092401232  0.9993453878579963  0.8270137118715866  1.0000
  O   O4        1.0  0.1706462448331223  0.23496956032864347  0.1718933971719867  1.0000
  O   O5        1.0  0.22994172485876874  0.263067449478541  0.8059164696891443  1.0000
  O   O6        1.0  0.6137877366867102  0.8571089916678378  0.5785419138156627  1.0000
  O   O7        1.0  0.3812033882263446  0.2231748261930191  0.7043709567209611  1.0000
  O   O8        1.0  0.6990632548225122  0.9143951165726953  0.9121192521576376  1.0000
