data_image0
_chemical_formula_structural       O8
_chemical_formula_sum              "O8"
_cell_length_a       5.369789702272613
_cell_length_b       5.369789702272613
_cell_length_c       4.389828171850124
_cell_angle_alpha    69.24482967881451
_cell_angle_beta     69.24482967881451
_cell_angle_gamma    70.78662063844564

_space_group_name_H-M_alt    "P 1"
_space_group_IT_number       1

loop_
  _space_group_symop_operation_xyz
  'x, y, z'

loop_
  _atom_site_type_symbol
  _atom_site_label
  _atom_site_symmetry_multiplicity
  _atom_site_fract_x
  _atom_site_fract_y
  _atom_site_fract_z
  _atom_site_occupancy
  O   O1        1.0  0.5123089072072773  0.4687708621596265  0.3441372798545501  1.0000
  O   O2        1.0  0.10006589508421992  0.5699078768408299  0.905843963656686  1.0000
  O   O3        1.0  0.31256510471550314  0.05434626691046418  0.40513214231800276  1.0000
  O   O4        1.0  0.5406460611752308  0.7699991644373343  0.5559936067236091  1.0000
  O   O5        1.0  0.13332778193843264  0.11212997252194867  0.1260948501167718  1.0000
  O   O6        1.0  0.05184291357341664  0.7276727094831976  0.16369876664694516  1.0000
  O   O7        1.0  0.18449416445143996  0.9782774033426378  0.14877919258295513  1.0000
  O   O8        1.0  0.16475121865559572  0.31889594895290685  0.35031915649739886  1.0000
