data_image0
_chemical_formula_structural       O8
_chemical_formula_sum              "O8"
_cell_length_a       5.369789702272613
_cell_length_b       5.369789702272613
_cell_length_c       4.389828171850124
_cell_angle_alpha    69.24482967881451
_cell_angle_beta     69.24482967881451
_cell_angle_gamma    70.78662063844564

_space_group_name_H-M_alt    "P 1"
_space_group_IT_number       1

loop_
  _space_group_symop_operation_xyz
  'x, y, z'

loop_
  _atom_site_type_symbol
  _atom_site_label
  _atom_site_symmetry_multiplicity
  _atom_site_fract_x
  _atom_site_fract_y
  _atom_site_fract_z
  _atom_site_occupancy
  O   O1        1.0  0.19540786002470822  0.5529462441447759  0.5016971685582519  1.0000
  O   O2        1.0  0.6591230581725682  0.4726331511092283  0.597810139760206  1.0000
  O   O3        1.0  0.09214161445462565  0.5804304291293718  0.3005626778589843  1.0000
  O   O4        1.0  0.13354434530845793  0.9235471950883456  0.9550924084298984  1.0000
  O   O5        1.0  0.6825856472511234  0.48013855690216545  0.24389896123431498  1.0000
  O   O6        1.0  0.8901648468439483  0.7452277661866447  0.5883032698306829  1.0000
  O   O7        1.0  0.03729088950264625  0.36823130641266033  0.20029924897266227  1.0000
  O   O8        1.0  0.309742467608757  0.8768446890187551  0.6123359305162879  1.0000
