data_image0
_chemical_formula_structural       O8
_chemical_formula_sum              "O8"
_cell_length_a       5.369789702272613
_cell_length_b       5.369789702272613
_cell_length_c       4.389828171850124
_cell_angle_alpha    69.24482967881451
_cell_angle_beta     69.24482967881451
_cell_angle_gamma    70.78662063844564

_space_group_name_H-M_alt    "P 1"
_space_group_IT_number       1

loop_
  _space_group_symop_operation_xyz
  'x, y, z'

loop_
  _atom_site_type_symbol
  _atom_site_label
  _atom_site_symmetry_multiplicity
  _atom_site_fract_x
  _atom_site_fract_y
  _atom_site_fract_z
  _atom_site_occupancy
  O   O1        1.0  0.5500725234520871  0.9852383547655954  0.9671793398356366  1.0000
  O   O2        1.0  0.23720497062219437  0.44268258094232493  0.08555412167475396  1.0000
  O   O3        1.0  0.5045892278652389  0.30689690208829745  0.36298805276460655  1.0000
  O   O4        1.0  0.8373249667618374  0.7879749398558646  0.7711420699509688  1.0000
  O   O5        1.0  0.3537624546019771  0.0013788993972454477  0.009264182155469314  1.0000
  O   O6        1.0  0.4315179527172752  0.4349935605841537  0.5207479781933397  1.0000
  O   O7        1.0  0.35478416427523385  0.8023332033703525  0.4559794009656244  1.0000
  O   O8        1.0  0.73074284396262  0.23850107775107254  0.8271450408673999  1.0000
