data_image0
_chemical_formula_structural       O8
_chemical_formula_sum              "O8"
_cell_length_a       5.369789702272613
_cell_length_b       5.369789702272613
_cell_length_c       4.389828171850124
_cell_angle_alpha    69.24482967881451
_cell_angle_beta     69.24482967881451
_cell_angle_gamma    70.78662063844564

_space_group_name_H-M_alt    "P 1"
_space_group_IT_number       1

loop_
  _space_group_symop_operation_xyz
  'x, y, z'

loop_
  _atom_site_type_symbol
  _atom_site_label
  _atom_site_symmetry_multiplicity
  _atom_site_fract_x
  _atom_site_fract_y
  _atom_site_fract_z
  _atom_site_occupancy
  O   O1        1.0  0.7011558078641844  0.6108390014112608  0.007747912680009961  1.0000
  O   O2        1.0  0.16207019355505992  0.9182718465305726  0.062471133188530814  1.0000
  O   O3        1.0  0.40670867092310736  0.8137013464003573  0.7289117440188733  1.0000
  O   O4        1.0  0.923043002827491  0.718616273329514  0.5339172113748916  1.0000
  O   O5        1.0  0.40871930122147404  0.4060235500440257  0.197509987946745  1.0000
  O   O6        1.0  0.9128811440390976  0.025518045820689395  0.4910802579509337  1.0000
  O   O7        1.0  0.02580923208708441  0.17848757742358856  0.633328937175996  1.0000
  O   O8        1.0  0.45961442248778184  0.32854258371418155  0.3450319299769262  1.0000
