data_image0
_chemical_formula_structural       O8
_chemical_formula_sum              "O8"
_cell_length_a       5.369789702272613
_cell_length_b       5.369789702272613
_cell_length_c       4.389828171850124
_cell_angle_alpha    69.24482967881451
_cell_angle_beta     69.24482967881451
_cell_angle_gamma    70.78662063844564

_space_group_name_H-M_alt    "P 1"
_space_group_IT_number       1

loop_
  _space_group_symop_operation_xyz
  'x, y, z'

loop_
  _atom_site_type_symbol
  _atom_site_label
  _atom_site_symmetry_multiplicity
  _atom_site_fract_x
  _atom_site_fract_y
  _atom_site_fract_z
  _atom_site_occupancy
  O   O1        1.0  0.9005775775639537  0.44211864208170404  0.23645151476798532  1.0000
  O   O2        1.0  0.937003947329984  0.6222701888351878  0.25165187079102935  1.0000
  O   O3        1.0  0.8348889385929223  0.46654845603219997  0.9881114039954042  1.0000
  O   O4        1.0  0.33086397493622854  0.45846638242143634  0.6892617840459891  1.0000
  O   O5        1.0  0.3115093206712558  0.3096826190651072  0.3191130607311834  1.0000
  O   O6        1.0  0.4411341846969279  0.9618581053883872  0.6481310082101501  1.0000
  O   O7        1.0  0.6353636670343334  0.34859940082581176  0.6165292651909411  1.0000
  O   O8        1.0  0.6086602096101359  0.3904561166702578  0.2507490644058805  1.0000
