data_image0
_chemical_formula_structural       O8
_chemical_formula_sum              "O8"
_cell_length_a       5.369789702272613
_cell_length_b       5.369789702272613
_cell_length_c       4.389828171850124
_cell_angle_alpha    69.24482967881451
_cell_angle_beta     69.24482967881451
_cell_angle_gamma    70.78662063844564

_space_group_name_H-M_alt    "P 1"
_space_group_IT_number       1

loop_
  _space_group_symop_operation_xyz
  'x, y, z'

loop_
  _atom_site_type_symbol
  _atom_site_label
  _atom_site_symmetry_multiplicity
  _atom_site_fract_x
  _atom_site_fract_y
  _atom_site_fract_z
  _atom_site_occupancy
  O   O1        1.0  0.13868823719020984  0.6109797845824314  0.015311464799395047  1.0000
  O   O2        1.0  0.5440680098397124  0.15844214453937155  0.815507788023055  1.0000
  O   O3        1.0  0.9645898508039998  0.20752108517090662  0.9958026681035079  1.0000
  O   O4        1.0  0.5460180654560141  0.6157301163556204  0.2210345915318115  1.0000
  O   O5        1.0  0.7731443076320543  0.595791093057148  0.25454810590323973  1.0000
  O   O6        1.0  0.9114283831050063  0.8216802448229501  0.3741376158821481  1.0000
  O   O7        1.0  0.2633057411199782  0.26465234185388176  0.03609101956719485  1.0000
  O   O8        1.0  0.8587576664424752  0.7252033204722679  0.2875662271869608  1.0000
