data_image0
_chemical_formula_structural       O8
_chemical_formula_sum              "O8"
_cell_length_a       5.369789702272613
_cell_length_b       5.369789702272613
_cell_length_c       4.389828171850124
_cell_angle_alpha    69.24482967881451
_cell_angle_beta     69.24482967881451
_cell_angle_gamma    70.78662063844564

_space_group_name_H-M_alt    "P 1"
_space_group_IT_number       1

loop_
  _space_group_symop_operation_xyz
  'x, y, z'

loop_
  _atom_site_type_symbol
  _atom_site_label
  _atom_site_symmetry_multiplicity
  _atom_site_fract_x
  _atom_site_fract_y
  _atom_site_fract_z
  _atom_site_occupancy
  O   O1        1.0  0.6036497095348743  0.6493378646015806  0.05147092453089641  1.0000
  O   O2        1.0  0.9788184684261054  0.8403224769600968  0.051202901074969276  1.0000
  O   O3        1.0  0.1357566787107629  0.4749649148788322  0.5511857954008139  1.0000
  O   O4        1.0  0.10845630198332401  0.9621817883402652  0.6206840963278908  1.0000
  O   O5        1.0  0.22899555584202957  0.2282614704723187  0.5889977854253718  1.0000
  O   O6        1.0  0.1674450325481338  0.24913208605110349  0.6609445238360934  1.0000
  O   O7        1.0  0.31573879203250854  0.34449760504525173  0.22086093259703343  1.0000
  O   O8        1.0  0.46114098234796685  0.25130124745720206  0.2546524264022487  1.0000
