data_image0
_chemical_formula_structural       O8
_chemical_formula_sum              "O8"
_cell_length_a       5.369789702272613
_cell_length_b       5.369789702272613
_cell_length_c       4.389828171850124
_cell_angle_alpha    69.24482967881451
_cell_angle_beta     69.24482967881451
_cell_angle_gamma    70.78662063844564

_space_group_name_H-M_alt    "P 1"
_space_group_IT_number       1

loop_
  _space_group_symop_operation_xyz
  'x, y, z'

loop_
  _atom_site_type_symbol
  _atom_site_label
  _atom_site_symmetry_multiplicity
  _atom_site_fract_x
  _atom_site_fract_y
  _atom_site_fract_z
  _atom_site_occupancy
  O   O1        1.0  0.008636052799428029  0.6456572103582623  0.8627114616815135  1.0000
  O   O2        1.0  0.8385439736817446  0.4813501080583329  0.5591704102674164  1.0000
  O   O3        1.0  0.09146832615958544  0.212710763431204  0.5476691202947972  1.0000
  O   O4        1.0  0.033973435866386126  0.035432097329842094  0.7251556136152644  1.0000
  O   O5        1.0  0.33271445979487524  0.8150443907709644  0.03722794575988431  1.0000
  O   O6        1.0  0.8308829144438974  0.10417520573866668  0.6242095310755715  1.0000
  O   O7        1.0  0.957110134732643  0.32311044448028525  0.06783593483335526  1.0000
  O   O8        1.0  0.9066719223089841  0.3825189419001953  0.5760198150212084  1.0000
