data_image0
_chemical_formula_structural       O8
_chemical_formula_sum              "O8"
_cell_length_a       5.369789702272613
_cell_length_b       5.369789702272613
_cell_length_c       4.389828171850124
_cell_angle_alpha    69.24482967881451
_cell_angle_beta     69.24482967881451
_cell_angle_gamma    70.78662063844564

_space_group_name_H-M_alt    "P 1"
_space_group_IT_number       1

loop_
  _space_group_symop_operation_xyz
  'x, y, z'

loop_
  _atom_site_type_symbol
  _atom_site_label
  _atom_site_symmetry_multiplicity
  _atom_site_fract_x
  _atom_site_fract_y
  _atom_site_fract_z
  _atom_site_occupancy
  O   O1        1.0  0.8614033601304327  0.1925288457570158  0.2923774255688798  1.0000
  O   O2        1.0  0.18968350290714397  0.36427387652747  0.515762115979058  1.0000
  O   O3        1.0  0.20052924199470823  0.3525380118980266  0.22214086347096895  1.0000
  O   O4        1.0  0.4919909621512879  0.9736417556476784  0.9324117599452677  1.0000
  O   O5        1.0  0.982554917901858  0.7828892429526135  0.7035646166843108  1.0000
  O   O6        1.0  0.5013690986884214  0.054961076424326905  0.2972728012432242  1.0000
  O   O7        1.0  0.4293730643636877  0.37354592543977105  0.9763886630699545  1.0000
  O   O8        1.0  0.3430972278577329  0.9056208184479768  0.06008169103958494  1.0000
