data_image0
_chemical_formula_structural       O8
_chemical_formula_sum              "O8"
_cell_length_a       5.369789702272613
_cell_length_b       5.369789702272613
_cell_length_c       4.389828171850124
_cell_angle_alpha    69.24482967881451
_cell_angle_beta     69.24482967881451
_cell_angle_gamma    70.78662063844564

_space_group_name_H-M_alt    "P 1"
_space_group_IT_number       1

loop_
  _space_group_symop_operation_xyz
  'x, y, z'

loop_
  _atom_site_type_symbol
  _atom_site_label
  _atom_site_symmetry_multiplicity
  _atom_site_fract_x
  _atom_site_fract_y
  _atom_site_fract_z
  _atom_site_occupancy
  O   O1        1.0  0.4423464929658607  0.5681084438355626  0.8218022139403587  1.0000
  O   O2        1.0  0.4999742447826243  0.0764425454781783  0.004604886596865754  1.0000
  O   O3        1.0  0.9329207250185867  0.7839093174199974  0.09775684121221673  1.0000
  O   O4        1.0  0.46162611323924807  0.11292380325451745  0.10119218963724208  1.0000
  O   O5        1.0  0.1878066278335968  0.7519946477684272  0.9530543283758242  1.0000
  O   O6        1.0  0.9369492036368783  0.8207873652009585  0.8731940007715338  1.0000
  O   O7        1.0  0.9856764285942257  0.8347294680334767  0.4993669893400128  1.0000
  O   O8        1.0  0.5527019483973277  0.051103899530009045  0.6490289122739554  1.0000
