data_image0
_chemical_formula_structural       O8
_chemical_formula_sum              "O8"
_cell_length_a       5.369789702272613
_cell_length_b       5.369789702272613
_cell_length_c       4.389828171850124
_cell_angle_alpha    69.24482967881451
_cell_angle_beta     69.24482967881451
_cell_angle_gamma    70.78662063844564

_space_group_name_H-M_alt    "P 1"
_space_group_IT_number       1

loop_
  _space_group_symop_operation_xyz
  'x, y, z'

loop_
  _atom_site_type_symbol
  _atom_site_label
  _atom_site_symmetry_multiplicity
  _atom_site_fract_x
  _atom_site_fract_y
  _atom_site_fract_z
  _atom_site_occupancy
  O   O1        1.0  0.7756870045787281  0.9640944688633672  0.8571428809447283  1.0000
  O   O2        1.0  0.284368340470337  0.6949778337380437  0.10397777102420491  1.0000
  O   O3        1.0  0.7915202906159955  0.11328394107248485  0.4575035826609053  1.0000
  O   O4        1.0  0.7273456295482834  0.7754318243904854  0.7264611212082528  1.0000
  O   O5        1.0  0.39846065174495826  0.024992999527164272  0.46197386299701293  1.0000
  O   O6        1.0  0.5852922249478993  0.7020431507912974  0.34644086126935925  1.0000
  O   O7        1.0  0.8137519750733384  0.965747188832589  0.22795541990398505  1.0000
  O   O8        1.0  0.623574135016506  0.7594287226762457  0.8185435786126316  1.0000
