data_image0
_chemical_formula_structural       O8
_chemical_formula_sum              "O8"
_cell_length_a       5.369789702272613
_cell_length_b       5.369789702272613
_cell_length_c       4.389828171850124
_cell_angle_alpha    69.24482967881451
_cell_angle_beta     69.24482967881451
_cell_angle_gamma    70.78662063844564

_space_group_name_H-M_alt    "P 1"
_space_group_IT_number       1

loop_
  _space_group_symop_operation_xyz
  'x, y, z'

loop_
  _atom_site_type_symbol
  _atom_site_label
  _atom_site_symmetry_multiplicity
  _atom_site_fract_x
  _atom_site_fract_y
  _atom_site_fract_z
  _atom_site_occupancy
  O   O1        1.0  0.6254742353230216  0.8414595695620228  0.3291987468401558  1.0000
  O   O2        1.0  0.8890406431286237  0.6982754855298339  0.09556713370751169  1.0000
  O   O3        1.0  0.46981636364638746  0.39192999550297714  0.8834141583039639  1.0000
  O   O4        1.0  0.13528556503024802  0.33484524521707915  0.07362619112242896  1.0000
  O   O5        1.0  0.5877639942036694  0.9696558648862954  0.349513531155516  1.0000
  O   O6        1.0  0.8236495424421193  0.28825733655561336  0.1358489837677217  1.0000
  O   O7        1.0  0.9922057628903858  0.5532439862362608  0.6944536875068508  1.0000
  O   O8        1.0  0.4767631703069526  0.9223321674603611  0.43837761318544466  1.0000
