data_image0
_chemical_formula_structural       O8
_chemical_formula_sum              "O8"
_cell_length_a       5.369789702272613
_cell_length_b       5.369789702272613
_cell_length_c       4.389828171850124
_cell_angle_alpha    69.24482967881451
_cell_angle_beta     69.24482967881451
_cell_angle_gamma    70.78662063844564

_space_group_name_H-M_alt    "P 1"
_space_group_IT_number       1

loop_
  _space_group_symop_operation_xyz
  'x, y, z'

loop_
  _atom_site_type_symbol
  _atom_site_label
  _atom_site_symmetry_multiplicity
  _atom_site_fract_x
  _atom_site_fract_y
  _atom_site_fract_z
  _atom_site_occupancy
  O   O1        1.0  0.791033844654331  0.775704607401476  0.45507302170348396  1.0000
  O   O2        1.0  0.49410175970551684  0.4191706763213219  0.5240206900565738  1.0000
  O   O3        1.0  0.6429977364637196  0.3800555984815901  0.6275539687614611  1.0000
  O   O4        1.0  0.6752189623528082  0.19033539288055135  0.715902219771233  1.0000
  O   O5        1.0  0.5222298481613088  0.04538992737795411  0.6880183310947672  1.0000
  O   O6        1.0  0.18967009364166643  0.3480922723539308  0.49444060479689256  1.0000
  O   O7        1.0  0.8355687239386214  0.5990833671130993  0.8148026133079569  1.0000
  O   O8        1.0  0.849181207750366  0.24216801233773566  0.6801873792728212  1.0000
