data_image0
_chemical_formula_structural       O8
_chemical_formula_sum              "O8"
_cell_length_a       5.369789702272613
_cell_length_b       5.369789702272613
_cell_length_c       4.389828171850124
_cell_angle_alpha    69.24482967881451
_cell_angle_beta     69.24482967881451
_cell_angle_gamma    70.78662063844564

_space_group_name_H-M_alt    "P 1"
_space_group_IT_number       1

loop_
  _space_group_symop_operation_xyz
  'x, y, z'

loop_
  _atom_site_type_symbol
  _atom_site_label
  _atom_site_symmetry_multiplicity
  _atom_site_fract_x
  _atom_site_fract_y
  _atom_site_fract_z
  _atom_site_occupancy
  O   O1        1.0  0.5444650443639532  0.5657163065119732  0.5102935754981708  1.0000
  O   O2        1.0  0.7555559388952622  0.5691307767071052  0.3254228143938658  1.0000
  O   O3        1.0  0.14940532801262663  0.6036971553660315  0.27307276648391365  1.0000
  O   O4        1.0  0.80208008700974  0.42975042051730217  0.10780046382006958  1.0000
  O   O5        1.0  0.4237685462184224  0.7953968711650017  0.15337520513432512  1.0000
  O   O6        1.0  0.5430532692914873  0.05028606243042333  0.37973315607631264  1.0000
  O   O7        1.0  0.9340178368933785  0.06850298243616315  0.6471904842524374  1.0000
  O   O8        1.0  0.8476548466436888  0.9175193864361816  0.6031110430225279  1.0000
