data_image0
_chemical_formula_structural       O8
_chemical_formula_sum              "O8"
_cell_length_a       5.369789702272613
_cell_length_b       5.369789702272613
_cell_length_c       4.389828171850124
_cell_angle_alpha    69.24482967881451
_cell_angle_beta     69.24482967881451
_cell_angle_gamma    70.78662063844564

_space_group_name_H-M_alt    "P 1"
_space_group_IT_number       1

loop_
  _space_group_symop_operation_xyz
  'x, y, z'

loop_
  _atom_site_type_symbol
  _atom_site_label
  _atom_site_symmetry_multiplicity
  _atom_site_fract_x
  _atom_site_fract_y
  _atom_site_fract_z
  _atom_site_occupancy
  O   O1        1.0  0.9513830609424048  0.48438485743662874  0.8600652168290921  1.0000
  O   O2        1.0  0.7538012917393186  0.544460122740702  0.23525298724198507  1.0000
  O   O3        1.0  0.6950247052009004  0.3883292659662416  0.4504683005507317  1.0000
  O   O4        1.0  0.8429846024992145  0.5874919708744495  0.42195208196578804  1.0000
  O   O5        1.0  0.6568864018078635  0.27647133141322655  0.4191884261367065  1.0000
  O   O6        1.0  0.3217149330654978  0.6700564212040749  0.6650544614001745  1.0000
  O   O7        1.0  0.6393733621405406  0.30244744891502506  0.8606461960500553  1.0000
  O   O8        1.0  0.13883231937709084  0.7463583675321313  0.08737291385730295  1.0000
