data_image0
_chemical_formula_structural       O8
_chemical_formula_sum              "O8"
_cell_length_a       5.369789702272613
_cell_length_b       5.369789702272613
_cell_length_c       4.389828171850124
_cell_angle_alpha    69.24482967881451
_cell_angle_beta     69.24482967881451
_cell_angle_gamma    70.78662063844564

_space_group_name_H-M_alt    "P 1"
_space_group_IT_number       1

loop_
  _space_group_symop_operation_xyz
  'x, y, z'

loop_
  _atom_site_type_symbol
  _atom_site_label
  _atom_site_symmetry_multiplicity
  _atom_site_fract_x
  _atom_site_fract_y
  _atom_site_fract_z
  _atom_site_occupancy
  O   O1        1.0  0.970359753582688  0.21030273592677418  0.28196378138362377  1.0000
  O   O2        1.0  0.9041147278177419  0.3452841545281107  0.4653544469333326  1.0000
  O   O3        1.0  0.1183786555488453  0.27762005721156413  0.01831104445728471  1.0000
  O   O4        1.0  0.9199001282506032  0.2958766057734499  0.03502310075635329  1.0000
  O   O5        1.0  0.425814305671528  0.24664673268425474  0.22609198174136225  1.0000
  O   O6        1.0  0.10565960675126718  0.5553425310537214  0.01325238527500261  1.0000
  O   O7        1.0  0.5227540137862441  0.12717233539030204  0.7414305327822293  1.0000
  O   O8        1.0  0.03302086805636861  0.9417547815939393  0.21857159506462054  1.0000
