data_image0
_chemical_formula_structural       O8
_chemical_formula_sum              "O8"
_cell_length_a       5.369789702272613
_cell_length_b       5.369789702272613
_cell_length_c       4.389828171850124
_cell_angle_alpha    69.24482967881451
_cell_angle_beta     69.24482967881451
_cell_angle_gamma    70.78662063844564

_space_group_name_H-M_alt    "P 1"
_space_group_IT_number       1

loop_
  _space_group_symop_operation_xyz
  'x, y, z'

loop_
  _atom_site_type_symbol
  _atom_site_label
  _atom_site_symmetry_multiplicity
  _atom_site_fract_x
  _atom_site_fract_y
  _atom_site_fract_z
  _atom_site_occupancy
  O   O1        1.0  0.44368872801303444  0.16696786423895205  0.027789765049465842  1.0000
  O   O2        1.0  0.8994459223381597  0.19961172186401654  0.00399304138257861  1.0000
  O   O3        1.0  0.1483512986353972  0.8201829181237912  0.7734213938627619  1.0000
  O   O4        1.0  0.1587892306709513  0.5032157944668385  0.7415567413009967  1.0000
  O   O5        1.0  0.9008589381677012  0.7413937378577664  0.9153008849665767  1.0000
  O   O6        1.0  0.6788472278404427  0.07282942104321677  0.05695950805585337  1.0000
  O   O7        1.0  0.5978218858023325  0.9188670856979613  0.5456584278687799  1.0000
  O   O8        1.0  0.17219759893146858  0.5769308195969778  0.9353200197664933  1.0000
