data_image0
_chemical_formula_structural       O8
_chemical_formula_sum              "O8"
_cell_length_a       5.369789702272613
_cell_length_b       5.369789702272613
_cell_length_c       4.389828171850124
_cell_angle_alpha    69.24482967881451
_cell_angle_beta     69.24482967881451
_cell_angle_gamma    70.78662063844564

_space_group_name_H-M_alt    "P 1"
_space_group_IT_number       1

loop_
  _space_group_symop_operation_xyz
  'x, y, z'

loop_
  _atom_site_type_symbol
  _atom_site_label
  _atom_site_symmetry_multiplicity
  _atom_site_fract_x
  _atom_site_fract_y
  _atom_site_fract_z
  _atom_site_occupancy
  O   O1        1.0  0.4795217903594864  0.5042512826181245  0.40868107746884164  1.0000
  O   O2        1.0  0.870685149971429  0.554507943890826  0.8758005277397132  1.0000
  O   O3        1.0  0.06805771906130076  0.05914123084649958  0.9374623313835855  1.0000
  O   O4        1.0  0.6707494735386561  0.3231218484884022  0.46016401420734176  1.0000
  O   O5        1.0  0.7815827606292345  0.9197003817901379  0.5019702995764632  1.0000
  O   O6        1.0  0.5516113744362179  0.44359111004525076  0.723645490814647  1.0000
  O   O7        1.0  0.9595481534299068  0.1486646468678856  0.8474360118830333  1.0000
  O   O8        1.0  0.6182455293721465  0.04702179669071427  0.24483891105192157  1.0000
