data_image0
_chemical_formula_structural       O8
_chemical_formula_sum              "O8"
_cell_length_a       5.369789702272613
_cell_length_b       5.369789702272613
_cell_length_c       4.389828171850124
_cell_angle_alpha    69.24482967881451
_cell_angle_beta     69.24482967881451
_cell_angle_gamma    70.78662063844564

_space_group_name_H-M_alt    "P 1"
_space_group_IT_number       1

loop_
  _space_group_symop_operation_xyz
  'x, y, z'

loop_
  _atom_site_type_symbol
  _atom_site_label
  _atom_site_symmetry_multiplicity
  _atom_site_fract_x
  _atom_site_fract_y
  _atom_site_fract_z
  _atom_site_occupancy
  O   O1        1.0  0.8496265103341134  0.5556497177433068  0.294889123803169  1.0000
  O   O2        1.0  0.7950983709418722  0.4011659088424224  0.0214809077080389  1.0000
  O   O3        1.0  0.8070824833574832  0.24433508518240643  0.6979327700818629  1.0000
  O   O4        1.0  0.12124677981993415  0.47930352398661347  0.08313722143017799  1.0000
  O   O5        1.0  0.9245485982068815  0.1833990360341886  0.3189304669822306  1.0000
  O   O6        1.0  0.02520936223126391  0.952632076251696  0.4356627664165913  1.0000
  O   O7        1.0  0.9620292542628834  0.83328480756348  0.43076984423355213  1.0000
  O   O8        1.0  0.5151588725807645  0.35023002146209414  0.7171958872428927  1.0000
