data_image0
_chemical_formula_structural       O8
_chemical_formula_sum              "O8"
_cell_length_a       5.369789702272613
_cell_length_b       5.369789702272613
_cell_length_c       4.389828171850124
_cell_angle_alpha    69.24482967881451
_cell_angle_beta     69.24482967881451
_cell_angle_gamma    70.78662063844564

_space_group_name_H-M_alt    "P 1"
_space_group_IT_number       1

loop_
  _space_group_symop_operation_xyz
  'x, y, z'

loop_
  _atom_site_type_symbol
  _atom_site_label
  _atom_site_symmetry_multiplicity
  _atom_site_fract_x
  _atom_site_fract_y
  _atom_site_fract_z
  _atom_site_occupancy
  O   O1        1.0  0.2711228825319907  0.4309869204492536  0.6627119579781535  1.0000
  O   O2        1.0  0.19404307312484548  0.03909714099131634  0.7399201337563248  1.0000
  O   O3        1.0  0.7524275115536057  0.1614381112013703  0.43295841323634576  1.0000
  O   O4        1.0  0.07518309424248315  0.0377870438258352  0.7508155882492966  1.0000
  O   O5        1.0  0.9719839774817807  0.4536166746125403  0.9978552418189359  1.0000
  O   O6        1.0  0.3170636808154299  0.7824049119490468  0.2771846550341053  1.0000
  O   O7        1.0  0.6912518321580787  0.8027151905355652  0.8354854003490453  1.0000
  O   O8        1.0  0.726925173197742  0.2919532170225372  0.3030684014862004  1.0000
