data_image0
_chemical_formula_structural       O8
_chemical_formula_sum              "O8"
_cell_length_a       5.369789702272613
_cell_length_b       5.369789702272613
_cell_length_c       4.389828171850124
_cell_angle_alpha    69.24482967881451
_cell_angle_beta     69.24482967881451
_cell_angle_gamma    70.78662063844564

_space_group_name_H-M_alt    "P 1"
_space_group_IT_number       1

loop_
  _space_group_symop_operation_xyz
  'x, y, z'

loop_
  _atom_site_type_symbol
  _atom_site_label
  _atom_site_symmetry_multiplicity
  _atom_site_fract_x
  _atom_site_fract_y
  _atom_site_fract_z
  _atom_site_occupancy
  O   O1        1.0  0.551281940634857  0.48468417745698567  0.9782715808086664  1.0000
  O   O2        1.0  0.9973901072875293  0.2649561504021136  0.7860961056960392  1.0000
  O   O3        1.0  0.4304813321069787  0.5209931984151623  0.40892447633117257  1.0000
  O   O4        1.0  0.05173260505759103  0.6354433665157462  0.03946512221989096  1.0000
  O   O5        1.0  0.9888352318539404  0.9853337462781369  0.5887045686913908  1.0000
  O   O6        1.0  0.7524932089250385  0.26508896106048496  0.017465641362750084  1.0000
  O   O7        1.0  0.7230984689737951  0.7784827876807654  0.682310243646512  1.0000
  O   O8        1.0  0.5046874420444887  0.06501689355604778  0.49876216237325366  1.0000
