data_image0
_chemical_formula_structural       O8
_chemical_formula_sum              "O8"
_cell_length_a       5.369789702272613
_cell_length_b       5.369789702272613
_cell_length_c       4.389828171850124
_cell_angle_alpha    69.24482967881451
_cell_angle_beta     69.24482967881451
_cell_angle_gamma    70.78662063844564

_space_group_name_H-M_alt    "P 1"
_space_group_IT_number       1

loop_
  _space_group_symop_operation_xyz
  'x, y, z'

loop_
  _atom_site_type_symbol
  _atom_site_label
  _atom_site_symmetry_multiplicity
  _atom_site_fract_x
  _atom_site_fract_y
  _atom_site_fract_z
  _atom_site_occupancy
  O   O1        1.0  0.5118185517651312  0.6915635599418692  0.538336962033938  1.0000
  O   O2        1.0  0.6709094918191738  0.16012544236620885  0.31301724863814684  1.0000
  O   O3        1.0  0.6141126423419649  0.7788910344370805  0.9386357862572865  1.0000
  O   O4        1.0  0.04473373578795048  0.6106167906859277  0.48948412513622586  1.0000
  O   O5        1.0  0.9206757934019603  0.5211619375654521  0.5121244788689694  1.0000
  O   O6        1.0  0.21464395487404175  0.022986329240335834  0.6082059499111594  1.0000
  O   O7        1.0  0.6968647902777754  0.11440464523415628  0.0055663802687071495  1.0000
  O   O8        1.0  0.32624315978136664  0.10025035811551808  0.5946281458252507  1.0000
