data_image0
_chemical_formula_structural       O8
_chemical_formula_sum              "O8"
_cell_length_a       5.369789702272613
_cell_length_b       5.369789702272613
_cell_length_c       4.389828171850124
_cell_angle_alpha    69.24482967881451
_cell_angle_beta     69.24482967881451
_cell_angle_gamma    70.78662063844564

_space_group_name_H-M_alt    "P 1"
_space_group_IT_number       1

loop_
  _space_group_symop_operation_xyz
  'x, y, z'

loop_
  _atom_site_type_symbol
  _atom_site_label
  _atom_site_symmetry_multiplicity
  _atom_site_fract_x
  _atom_site_fract_y
  _atom_site_fract_z
  _atom_site_occupancy
  O   O1        1.0  0.5630175959437302  0.14631144311048416  0.6310884750119925  1.0000
  O   O2        1.0  0.7667392299011766  0.10506436337872493  0.9288444410282395  1.0000
  O   O3        1.0  0.6039948196143357  0.2665818607764976  0.584311882641444  1.0000
  O   O4        1.0  0.15007501392805978  0.33884117364659616  0.0921428313604089  1.0000
  O   O5        1.0  0.8466686678378341  0.1212717726522925  0.6333817961921824  1.0000
  O   O6        1.0  0.2759977329389329  0.3387641136646806  0.4005865666691868  1.0000
  O   O7        1.0  0.4950335925626064  0.5958880307440424  0.052092527446305326  1.0000
  O   O8        1.0  0.29847554584463154  0.08727714989559884  0.6775509804188538  1.0000
