data_image0
_chemical_formula_structural       O8
_chemical_formula_sum              "O8"
_cell_length_a       5.369789702272613
_cell_length_b       5.369789702272613
_cell_length_c       4.389828171850124
_cell_angle_alpha    69.24482967881451
_cell_angle_beta     69.24482967881451
_cell_angle_gamma    70.78662063844564

_space_group_name_H-M_alt    "P 1"
_space_group_IT_number       1

loop_
  _space_group_symop_operation_xyz
  'x, y, z'

loop_
  _atom_site_type_symbol
  _atom_site_label
  _atom_site_symmetry_multiplicity
  _atom_site_fract_x
  _atom_site_fract_y
  _atom_site_fract_z
  _atom_site_occupancy
  O   O1        1.0  0.40271825488232516  0.40679338788697805  0.8253052623058981  1.0000
  O   O2        1.0  0.11429411642381027  0.007250881959599553  0.3752327965007112  1.0000
  O   O3        1.0  0.38758425820537923  0.22292125064361556  0.6095212228073379  1.0000
  O   O4        1.0  0.4560082444628364  0.5645316342277473  0.06906409941543856  1.0000
  O   O5        1.0  0.8197139375229118  0.4231210055260419  0.9060523647859355  1.0000
  O   O6        1.0  0.4350230534376358  0.8030356648230992  0.205787774585096  1.0000
  O   O7        1.0  0.05334806595847352  0.9739121035216877  0.6206326263715454  1.0000
  O   O8        1.0  0.33131023655615977  0.5984341705708003  0.3884035136082211  1.0000
