data_image0
_chemical_formula_structural       O8
_chemical_formula_sum              "O8"
_cell_length_a       5.369789702272613
_cell_length_b       5.369789702272613
_cell_length_c       4.389828171850124
_cell_angle_alpha    69.24482967881451
_cell_angle_beta     69.24482967881451
_cell_angle_gamma    70.78662063844564

_space_group_name_H-M_alt    "P 1"
_space_group_IT_number       1

loop_
  _space_group_symop_operation_xyz
  'x, y, z'

loop_
  _atom_site_type_symbol
  _atom_site_label
  _atom_site_symmetry_multiplicity
  _atom_site_fract_x
  _atom_site_fract_y
  _atom_site_fract_z
  _atom_site_occupancy
  O   O1        1.0  0.023629476278586026  0.9611542129117723  0.9862110353572575  1.0000
  O   O2        1.0  0.6922668943576766  0.5225817714153571  0.98913887817438  1.0000
  O   O3        1.0  0.4173963028155825  0.8806662027066849  0.5561790195765326  1.0000
  O   O4        1.0  0.6847520409426586  0.7555462198773437  0.47667101824405844  1.0000
  O   O5        1.0  0.7406501251939641  0.1744308753717405  0.9818317565611281  1.0000
  O   O6        1.0  0.436432196473195  0.8733788595568086  0.3709242572680935  1.0000
  O   O7        1.0  0.2310916355940531  0.5969269655965057  0.39450926840029954  1.0000
  O   O8        1.0  0.7737831565763287  0.23531512312713332  0.24453378337114984  1.0000
