data_image0
_chemical_formula_structural       O8
_chemical_formula_sum              "O8"
_cell_length_a       5.369789702272613
_cell_length_b       5.369789702272613
_cell_length_c       4.389828171850124
_cell_angle_alpha    69.24482967881451
_cell_angle_beta     69.24482967881451
_cell_angle_gamma    70.78662063844564

_space_group_name_H-M_alt    "P 1"
_space_group_IT_number       1

loop_
  _space_group_symop_operation_xyz
  'x, y, z'

loop_
  _atom_site_type_symbol
  _atom_site_label
  _atom_site_symmetry_multiplicity
  _atom_site_fract_x
  _atom_site_fract_y
  _atom_site_fract_z
  _atom_site_occupancy
  O   O1        1.0  0.2582522076033342  0.5591783799426011  0.37445535723159296  1.0000
  O   O2        1.0  0.6240746120049057  0.548683530916577  0.05502627315905784  1.0000
  O   O3        1.0  0.8366003582854518  0.24133006514594868  0.8884368022689841  1.0000
  O   O4        1.0  0.6205820253796048  0.20917968568779077  0.8066337587922305  1.0000
  O   O5        1.0  0.3718283110429077  0.6966641994930285  0.10502476243616288  1.0000
  O   O6        1.0  0.3219496794087977  0.7161738525372048  0.7355395499533159  1.0000
  O   O7        1.0  0.32342092579371595  0.7810461051819146  0.15071447659150294  1.0000
  O   O8        1.0  0.6432926103403567  0.24774356112628304  0.8841694925596819  1.0000
