data_image0
_chemical_formula_structural       O8
_chemical_formula_sum              "O8"
_cell_length_a       5.369789702272613
_cell_length_b       5.369789702272613
_cell_length_c       4.389828171850124
_cell_angle_alpha    69.24482967881451
_cell_angle_beta     69.24482967881451
_cell_angle_gamma    70.78662063844564

_space_group_name_H-M_alt    "P 1"
_space_group_IT_number       1

loop_
  _space_group_symop_operation_xyz
  'x, y, z'

loop_
  _atom_site_type_symbol
  _atom_site_label
  _atom_site_symmetry_multiplicity
  _atom_site_fract_x
  _atom_site_fract_y
  _atom_site_fract_z
  _atom_site_occupancy
  O   O1        1.0  0.36049323455379856  0.0633085425024369  0.5245837490602483  1.0000
  O   O2        1.0  0.43647621354175214  0.9811688207131084  0.5322091110155043  1.0000
  O   O3        1.0  0.6640937431530816  0.5009306040882961  0.7033912714754678  1.0000
  O   O4        1.0  0.6641052858222807  0.1999619637537986  0.037749482391740585  1.0000
  O   O5        1.0  0.650822491398813  0.8560584306039098  0.1854949771032537  1.0000
  O   O6        1.0  0.4653792115264763  0.6117381471195742  0.9316236506264843  1.0000
  O   O7        1.0  0.9913011768676299  0.6640453005805824  0.8167219559344261  1.0000
  O   O8        1.0  0.7673307705653958  0.1227883900803235  0.26822343495659595  1.0000
