data_image0
_chemical_formula_structural       O8
_chemical_formula_sum              "O8"
_cell_length_a       5.369789702272613
_cell_length_b       5.369789702272613
_cell_length_c       4.389828171850124
_cell_angle_alpha    69.24482967881451
_cell_angle_beta     69.24482967881451
_cell_angle_gamma    70.78662063844564

_space_group_name_H-M_alt    "P 1"
_space_group_IT_number       1

loop_
  _space_group_symop_operation_xyz
  'x, y, z'

loop_
  _atom_site_type_symbol
  _atom_site_label
  _atom_site_symmetry_multiplicity
  _atom_site_fract_x
  _atom_site_fract_y
  _atom_site_fract_z
  _atom_site_occupancy
  O   O1        1.0  0.8691392516353531  0.8360715798376486  0.7802302397783649  1.0000
  O   O2        1.0  0.11583414607780895  0.7351312605519205  0.43407087061811467  1.0000
  O   O3        1.0  0.3943745018319209  0.15711368488532607  0.5354820942996952  1.0000
  O   O4        1.0  0.1803967888667266  0.2960555716153621  0.9663300461538213  1.0000
  O   O5        1.0  0.04591871482637533  0.9778223070696352  0.9961992147512362  1.0000
  O   O6        1.0  0.9072704453922871  0.7269456576542837  0.9380693672986595  1.0000
  O   O7        1.0  0.023410659159241565  0.9785709655537075  0.10391325336798474  1.0000
  O   O8        1.0  0.4636554933268897  0.29228881856550926  0.24570455250003675  1.0000
