data_image0
_chemical_formula_structural       O8
_chemical_formula_sum              "O8"
_cell_length_a       5.369789702272613
_cell_length_b       5.369789702272613
_cell_length_c       4.389828171850124
_cell_angle_alpha    69.24482967881451
_cell_angle_beta     69.24482967881451
_cell_angle_gamma    70.78662063844564

_space_group_name_H-M_alt    "P 1"
_space_group_IT_number       1

loop_
  _space_group_symop_operation_xyz
  'x, y, z'

loop_
  _atom_site_type_symbol
  _atom_site_label
  _atom_site_symmetry_multiplicity
  _atom_site_fract_x
  _atom_site_fract_y
  _atom_site_fract_z
  _atom_site_occupancy
  O   O1        1.0  0.2601659085984007  0.8249488668426377  0.12841482242466684  1.0000
  O   O2        1.0  0.3411901621468161  0.46284575021329744  0.8584782632623984  1.0000
  O   O3        1.0  0.14702888755960686  0.6234982881191513  0.8066481880501755  1.0000
  O   O4        1.0  0.5944655586581075  0.5431764647399975  0.4585335715610199  1.0000
  O   O5        1.0  0.34764163825092886  0.5648730618023929  0.370734746785935  1.0000
  O   O6        1.0  0.5671908674094936  0.03498730532306382  0.5159235715936612  1.0000
  O   O7        1.0  0.7815626418799102  0.7038521387345824  0.6177387984885669  1.0000
  O   O8        1.0  0.9607539983334306  0.2418175367323676  0.24352819995128527  1.0000
