data_image0
_chemical_formula_structural       O8
_chemical_formula_sum              "O8"
_cell_length_a       5.369789702272613
_cell_length_b       5.369789702272613
_cell_length_c       4.389828171850124
_cell_angle_alpha    69.24482967881451
_cell_angle_beta     69.24482967881451
_cell_angle_gamma    70.78662063844564

_space_group_name_H-M_alt    "P 1"
_space_group_IT_number       1

loop_
  _space_group_symop_operation_xyz
  'x, y, z'

loop_
  _atom_site_type_symbol
  _atom_site_label
  _atom_site_symmetry_multiplicity
  _atom_site_fract_x
  _atom_site_fract_y
  _atom_site_fract_z
  _atom_site_occupancy
  O   O1        1.0  0.5856046674670807  0.7261107913090967  0.6355585456188777  1.0000
  O   O2        1.0  0.4589135051212949  0.45014178846915165  0.403883720388059  1.0000
  O   O3        1.0  0.23449980947473392  0.09300936522074466  0.5273053443208653  1.0000
  O   O4        1.0  0.6341646202533298  0.37118614239895464  0.2413257858582547  1.0000
  O   O5        1.0  0.9506967993338176  0.8823835577145474  0.23627214409636466  1.0000
  O   O6        1.0  0.8422090672338953  0.8154656351954106  0.39071404771320317  1.0000
  O   O7        1.0  0.47857662351733055  0.030524231152908143  0.9809297789616185  1.0000
  O   O8        1.0  0.8153367776904332  0.6311779595393983  0.5840107971327555  1.0000
