data_image0
_chemical_formula_structural       O8
_chemical_formula_sum              "O8"
_cell_length_a       5.369789702272613
_cell_length_b       5.369789702272613
_cell_length_c       4.389828171850124
_cell_angle_alpha    69.24482967881451
_cell_angle_beta     69.24482967881451
_cell_angle_gamma    70.78662063844564

_space_group_name_H-M_alt    "P 1"
_space_group_IT_number       1

loop_
  _space_group_symop_operation_xyz
  'x, y, z'

loop_
  _atom_site_type_symbol
  _atom_site_label
  _atom_site_symmetry_multiplicity
  _atom_site_fract_x
  _atom_site_fract_y
  _atom_site_fract_z
  _atom_site_occupancy
  O   O1        1.0  0.7085774316827518  0.8315708273893172  0.5959767081690188  1.0000
  O   O2        1.0  0.6116814472170002  0.2330697141723146  0.3084495074803755  1.0000
  O   O3        1.0  0.6521258637399967  0.993305114410461  0.19990074581983208  1.0000
  O   O4        1.0  0.46368378055846193  0.2360222966751513  0.756106617997963  1.0000
  O   O5        1.0  0.054975880378219766  0.8309078558055916  0.8714880125292339  1.0000
  O   O6        1.0  0.08251863702187734  0.22659596179828867  0.19439938408341817  1.0000
  O   O7        1.0  0.35698054779009425  0.5018584118191356  0.6434596682600056  1.0000
  O   O8        1.0  0.06945858934343008  0.14666967992385693  0.4302182084601256  1.0000
