data_image0
_chemical_formula_structural       O8
_chemical_formula_sum              "O8"
_cell_length_a       5.369789702272613
_cell_length_b       5.369789702272613
_cell_length_c       4.389828171850124
_cell_angle_alpha    69.24482967881451
_cell_angle_beta     69.24482967881451
_cell_angle_gamma    70.78662063844564

_space_group_name_H-M_alt    "P 1"
_space_group_IT_number       1

loop_
  _space_group_symop_operation_xyz
  'x, y, z'

loop_
  _atom_site_type_symbol
  _atom_site_label
  _atom_site_symmetry_multiplicity
  _atom_site_fract_x
  _atom_site_fract_y
  _atom_site_fract_z
  _atom_site_occupancy
  O   O1        1.0  0.6060800926047278  0.4720840315878281  0.677242877813427  1.0000
  O   O2        1.0  0.5888805877133674  0.5550691334363798  0.4150079545841763  1.0000
  O   O3        1.0  0.8870906042142224  0.4793893371785032  0.24511399006203227  1.0000
  O   O4        1.0  0.7149024735957639  0.36224332749810806  0.8025412710598026  1.0000
  O   O5        1.0  0.6042837716049583  0.39736956663983136  0.40833310978404924  1.0000
  O   O6        1.0  0.24921646122789554  0.16328703268060352  0.7001195339147941  1.0000
  O   O7        1.0  0.2925760545181948  0.9266963697441533  0.7450294463708662  1.0000
  O   O8        1.0  0.05697142295876745  0.6438606241333655  0.006611290626775457  1.0000
