data_image0
_chemical_formula_structural       O8
_chemical_formula_sum              "O8"
_cell_length_a       5.369789702272613
_cell_length_b       5.369789702272613
_cell_length_c       4.389828171850124
_cell_angle_alpha    69.24482967881451
_cell_angle_beta     69.24482967881451
_cell_angle_gamma    70.78662063844564

_space_group_name_H-M_alt    "P 1"
_space_group_IT_number       1

loop_
  _space_group_symop_operation_xyz
  'x, y, z'

loop_
  _atom_site_type_symbol
  _atom_site_label
  _atom_site_symmetry_multiplicity
  _atom_site_fract_x
  _atom_site_fract_y
  _atom_site_fract_z
  _atom_site_occupancy
  O   O1        1.0  0.58142456026291  0.7286569415933535  0.9590483360452993  1.0000
  O   O2        1.0  0.3905381950756208  0.52690012655804  0.3424552155759031  1.0000
  O   O3        1.0  0.6669938916013276  0.4396839615480843  0.42434510385798774  1.0000
  O   O4        1.0  0.5378268546078218  0.5267786705155055  0.7059353976519702  1.0000
  O   O5        1.0  0.9865850364916184  0.13738495360162872  0.5483322160565365  1.0000
  O   O6        1.0  0.5632879095917787  0.8714542446695077  0.16018678123421637  1.0000
  O   O7        1.0  0.7184503994367475  0.41271676676143443  0.8961113299788863  1.0000
  O   O8        1.0  0.5548949597573483  0.35642434292257263  0.963584666733631  1.0000
