data_image0
_chemical_formula_structural       O8
_chemical_formula_sum              "O8"
_cell_length_a       5.369789702272613
_cell_length_b       5.369789702272613
_cell_length_c       4.389828171850124
_cell_angle_alpha    69.24482967881451
_cell_angle_beta     69.24482967881451
_cell_angle_gamma    70.78662063844564

_space_group_name_H-M_alt    "P 1"
_space_group_IT_number       1

loop_
  _space_group_symop_operation_xyz
  'x, y, z'

loop_
  _atom_site_type_symbol
  _atom_site_label
  _atom_site_symmetry_multiplicity
  _atom_site_fract_x
  _atom_site_fract_y
  _atom_site_fract_z
  _atom_site_occupancy
  O   O1        1.0  0.17182411894275074  0.5527356275778592  0.6979053192745894  1.0000
  O   O2        1.0  0.1905730783927595  0.5764481756591593  0.914377405059092  1.0000
  O   O3        1.0  0.8972472120397583  0.22814798737312003  0.5375284857158178  1.0000
  O   O4        1.0  0.3549436342543135  0.4053251653728136  0.4539214055222054  1.0000
  O   O5        1.0  0.3842029347863871  0.8949974275548698  0.02059967213241265  1.0000
  O   O6        1.0  0.018830243482923947  0.9785464577587781  0.5150981120415725  1.0000
  O   O7        1.0  0.24135965052144215  0.845050185561476  0.5259343430131196  1.0000
  O   O8        1.0  0.7410185216715561  0.5187485483937904  0.3346353796267678  1.0000
