data_image0
_chemical_formula_structural       O8
_chemical_formula_sum              "O8"
_cell_length_a       5.369789702272613
_cell_length_b       5.369789702272613
_cell_length_c       4.389828171850124
_cell_angle_alpha    69.24482967881451
_cell_angle_beta     69.24482967881451
_cell_angle_gamma    70.78662063844564

_space_group_name_H-M_alt    "P 1"
_space_group_IT_number       1

loop_
  _space_group_symop_operation_xyz
  'x, y, z'

loop_
  _atom_site_type_symbol
  _atom_site_label
  _atom_site_symmetry_multiplicity
  _atom_site_fract_x
  _atom_site_fract_y
  _atom_site_fract_z
  _atom_site_occupancy
  O   O1        1.0  0.9752617074225611  0.1986656143793013  0.6521629932067583  1.0000
  O   O2        1.0  0.15181400421689162  0.0817283652522125  0.38417073947725555  1.0000
  O   O3        1.0  0.16571001382672534  0.6181673669478833  0.6997346821395567  1.0000
  O   O4        1.0  0.5180948451815368  0.2074982440003872  0.427474983631809  1.0000
  O   O5        1.0  0.8894912806734219  0.28160245936811634  0.7031850452682136  1.0000
  O   O6        1.0  0.5408393550093678  0.36444242683758965  0.10830249822138427  1.0000
  O   O7        1.0  0.5081948632101962  0.3534361847806246  0.2369344443088348  1.0000
  O   O8        1.0  0.2505960424308995  0.894459051842265  0.7880343003980883  1.0000
