data_image0
_chemical_formula_structural       O8
_chemical_formula_sum              "O8"
_cell_length_a       5.369789702272613
_cell_length_b       5.369789702272613
_cell_length_c       4.389828171850124
_cell_angle_alpha    69.24482967881451
_cell_angle_beta     69.24482967881451
_cell_angle_gamma    70.78662063844564

_space_group_name_H-M_alt    "P 1"
_space_group_IT_number       1

loop_
  _space_group_symop_operation_xyz
  'x, y, z'

loop_
  _atom_site_type_symbol
  _atom_site_label
  _atom_site_symmetry_multiplicity
  _atom_site_fract_x
  _atom_site_fract_y
  _atom_site_fract_z
  _atom_site_occupancy
  O   O1        1.0  0.7699060683572116  0.35099002366479226  0.41570173370024577  1.0000
  O   O2        1.0  0.5477522393909453  0.8160834999003583  0.09395987804872163  1.0000
  O   O3        1.0  0.11394511107161875  0.15181204564133566  0.845806968802485  1.0000
  O   O4        1.0  0.48111346797594834  0.5161708928716493  0.533581471244787  1.0000
  O   O5        1.0  0.1940164174542076  0.5883968672587088  0.4791176379982858  1.0000
  O   O6        1.0  0.8237293286510408  0.6927571192816089  0.4664297655319185  1.0000
  O   O7        1.0  0.27408988563758996  0.8848523283991341  0.2777986989285637  1.0000
  O   O8        1.0  0.7954486039575741  0.9989366476255039  0.8876038204092183  1.0000
