data_image0
_chemical_formula_structural       O8
_chemical_formula_sum              "O8"
_cell_length_a       5.369789702272613
_cell_length_b       5.369789702272613
_cell_length_c       4.389828171850124
_cell_angle_alpha    69.24482967881451
_cell_angle_beta     69.24482967881451
_cell_angle_gamma    70.78662063844564

_space_group_name_H-M_alt    "P 1"
_space_group_IT_number       1

loop_
  _space_group_symop_operation_xyz
  'x, y, z'

loop_
  _atom_site_type_symbol
  _atom_site_label
  _atom_site_symmetry_multiplicity
  _atom_site_fract_x
  _atom_site_fract_y
  _atom_site_fract_z
  _atom_site_occupancy
  O   O1        1.0  0.5220238628987666  0.6878797422791507  0.12178307192387194  1.0000
  O   O2        1.0  0.5990413378347128  0.29304006187140885  0.5279363135634156  1.0000
  O   O3        1.0  0.7988066502196496  0.1061330533504048  0.42568690887361527  1.0000
  O   O4        1.0  0.853274603958198  0.9023797028274227  0.09230260951476943  1.0000
  O   O5        1.0  0.6330315216450089  0.019355239429646343  0.12424585783916342  1.0000
  O   O6        1.0  0.630057955456074  0.5986449148774255  0.49465225100609445  1.0000
  O   O7        1.0  0.09041696598488258  0.4505458065900285  0.629553007599668  1.0000
  O   O8        1.0  0.8733492193167347  0.942021722579284  0.5838375522668997  1.0000
