data_image0
_chemical_formula_structural       O8
_chemical_formula_sum              "O8"
_cell_length_a       5.369789702272613
_cell_length_b       5.369789702272613
_cell_length_c       4.389828171850124
_cell_angle_alpha    69.24482967881451
_cell_angle_beta     69.24482967881451
_cell_angle_gamma    70.78662063844564

_space_group_name_H-M_alt    "P 1"
_space_group_IT_number       1

loop_
  _space_group_symop_operation_xyz
  'x, y, z'

loop_
  _atom_site_type_symbol
  _atom_site_label
  _atom_site_symmetry_multiplicity
  _atom_site_fract_x
  _atom_site_fract_y
  _atom_site_fract_z
  _atom_site_occupancy
  O   O1        1.0  0.82351135092888  0.653064706009383  0.19750214903069718  1.0000
  O   O2        1.0  0.6169827099055567  0.6130781036666093  0.9349367820439625  1.0000
  O   O3        1.0  0.5199194892629393  0.5385151388818414  0.6331098997029585  1.0000
  O   O4        1.0  0.2526991259573883  0.8976229010735395  0.905594979503956  1.0000
  O   O5        1.0  0.43049644594064773  0.48880023035191655  0.6127035014636988  1.0000
  O   O6        1.0  0.6955335133350076  0.9021794128609812  0.09127642669982272  1.0000
  O   O7        1.0  0.2637897618346692  0.3720676648631027  0.19192839103946113  1.0000
  O   O8        1.0  0.3970686983145697  0.5346712706740746  0.43294767259236266  1.0000
