data_image0
_chemical_formula_structural       O8
_chemical_formula_sum              "O8"
_cell_length_a       5.369789702272613
_cell_length_b       5.369789702272613
_cell_length_c       4.389828171850124
_cell_angle_alpha    69.24482967881451
_cell_angle_beta     69.24482967881451
_cell_angle_gamma    70.78662063844564

_space_group_name_H-M_alt    "P 1"
_space_group_IT_number       1

loop_
  _space_group_symop_operation_xyz
  'x, y, z'

loop_
  _atom_site_type_symbol
  _atom_site_label
  _atom_site_symmetry_multiplicity
  _atom_site_fract_x
  _atom_site_fract_y
  _atom_site_fract_z
  _atom_site_occupancy
  O   O1        1.0  0.7429765957850343  0.1463920399253027  0.9086276176066121  1.0000
  O   O2        1.0  0.9504770153124369  0.5658239535557783  0.4139894116744358  1.0000
  O   O3        1.0  0.5297948522149909  0.8373152640596331  0.38590241299195327  1.0000
  O   O4        1.0  0.20932717474511264  0.0622486891474443  0.9956997546903423  1.0000
  O   O5        1.0  0.750828908068371  0.3220394332883427  0.7119202859696045  1.0000
  O   O6        1.0  0.5143317301506332  0.6635800291005864  0.5570821778868194  1.0000
  O   O7        1.0  0.2885138117934787  0.3540413748381326  0.6667852507513601  1.0000
  O   O8        1.0  0.013752110417650676  0.048559544280720957  0.3599908368849185  1.0000
