data_image0
_chemical_formula_structural       O8
_chemical_formula_sum              "O8"
_cell_length_a       5.369789702272613
_cell_length_b       5.369789702272613
_cell_length_c       4.389828171850124
_cell_angle_alpha    69.24482967881451
_cell_angle_beta     69.24482967881451
_cell_angle_gamma    70.78662063844564

_space_group_name_H-M_alt    "P 1"
_space_group_IT_number       1

loop_
  _space_group_symop_operation_xyz
  'x, y, z'

loop_
  _atom_site_type_symbol
  _atom_site_label
  _atom_site_symmetry_multiplicity
  _atom_site_fract_x
  _atom_site_fract_y
  _atom_site_fract_z
  _atom_site_occupancy
  O   O1        1.0  0.3496455861421779  0.005789413553166867  0.9766252158907278  1.0000
  O   O2        1.0  0.9235004698569611  0.9433863155900823  0.6989193022336337  1.0000
  O   O3        1.0  0.5435995354363321  0.6028726359032461  0.6122558398479043  1.0000
  O   O4        1.0  0.9404773180769439  0.8416538418057815  0.26429002967782367  1.0000
  O   O5        1.0  0.6958532183612434  0.06443557798928623  0.3979283518924035  1.0000
  O   O6        1.0  0.9626434280981826  0.7036103725045919  0.48094976153938696  1.0000
  O   O7        1.0  0.9876976309429004  0.21908763414649712  0.11420083748554788  1.0000
  O   O8        1.0  0.5965839093330843  0.6191636441105643  0.4548305634534273  1.0000
