data_image0
_chemical_formula_structural       O8
_chemical_formula_sum              "O8"
_cell_length_a       5.369789702272613
_cell_length_b       5.369789702272613
_cell_length_c       4.389828171850124
_cell_angle_alpha    69.24482967881451
_cell_angle_beta     69.24482967881451
_cell_angle_gamma    70.78662063844564

_space_group_name_H-M_alt    "P 1"
_space_group_IT_number       1

loop_
  _space_group_symop_operation_xyz
  'x, y, z'

loop_
  _atom_site_type_symbol
  _atom_site_label
  _atom_site_symmetry_multiplicity
  _atom_site_fract_x
  _atom_site_fract_y
  _atom_site_fract_z
  _atom_site_occupancy
  O   O1        1.0  0.2610978652684892  0.40075984122298003  0.8667348510199879  1.0000
  O   O2        1.0  0.5197524014277306  0.9979517744770092  0.9642261907660767  1.0000
  O   O3        1.0  0.8626769818941042  0.663456243910943  0.647573221126958  1.0000
  O   O4        1.0  0.6081463059829524  0.23192959522347856  0.7467229762131673  1.0000
  O   O5        1.0  0.2037659985433109  0.1689605912392409  0.18011428044681566  1.0000
  O   O6        1.0  0.2659338977922836  0.7862757690469344  0.685369741675629  1.0000
  O   O7        1.0  0.7186950496764091  0.2001353861187667  0.02699594715030429  1.0000
  O   O8        1.0  0.5599320314887741  0.5505307028895068  0.8822636502742611  1.0000
