data_image0
_chemical_formula_structural       O8
_chemical_formula_sum              "O8"
_cell_length_a       5.369789702272613
_cell_length_b       5.369789702272613
_cell_length_c       4.389828171850124
_cell_angle_alpha    69.24482967881451
_cell_angle_beta     69.24482967881451
_cell_angle_gamma    70.78662063844564

_space_group_name_H-M_alt    "P 1"
_space_group_IT_number       1

loop_
  _space_group_symop_operation_xyz
  'x, y, z'

loop_
  _atom_site_type_symbol
  _atom_site_label
  _atom_site_symmetry_multiplicity
  _atom_site_fract_x
  _atom_site_fract_y
  _atom_site_fract_z
  _atom_site_occupancy
  O   O1        1.0  0.9221663909041036  0.654195332512014  0.6450546531127586  1.0000
  O   O2        1.0  0.15311590846769363  0.9258945947018589  0.8325372069057124  1.0000
  O   O3        1.0  0.2333131533681012  0.521333489801254  0.8925722328406547  1.0000
  O   O4        1.0  0.2857328604581326  0.033737133668682695  0.17893486240634537  1.0000
  O   O5        1.0  0.7797962970110639  0.369202410836067  0.5003371335178146  1.0000
  O   O6        1.0  0.6428298709498002  0.13953003628792615  0.10962123110989808  1.0000
  O   O7        1.0  0.32360426901653483  0.2483804236799898  0.30183347284155815  1.0000
  O   O8        1.0  0.6594418537037683  0.1077265658565345  0.539109768454411  1.0000
