data_image0
_chemical_formula_structural       O8
_chemical_formula_sum              "O8"
_cell_length_a       5.369789702272613
_cell_length_b       5.369789702272613
_cell_length_c       4.389828171850124
_cell_angle_alpha    69.24482967881451
_cell_angle_beta     69.24482967881451
_cell_angle_gamma    70.78662063844564

_space_group_name_H-M_alt    "P 1"
_space_group_IT_number       1

loop_
  _space_group_symop_operation_xyz
  'x, y, z'

loop_
  _atom_site_type_symbol
  _atom_site_label
  _atom_site_symmetry_multiplicity
  _atom_site_fract_x
  _atom_site_fract_y
  _atom_site_fract_z
  _atom_site_occupancy
  O   O1        1.0  0.47466774273389767  0.28898489245707193  0.4627247785929445  1.0000
  O   O2        1.0  0.43322310609079295  0.8933086576687117  0.15431284377450538  1.0000
  O   O3        1.0  0.3186548902546775  0.19230537402045655  0.17855029430371516  1.0000
  O   O4        1.0  0.16834724807986046  0.4373814157118583  0.7632094898358162  1.0000
  O   O5        1.0  0.6223119007885103  0.8990394820374732  0.5948457477429869  1.0000
  O   O6        1.0  0.40871350780091475  0.7887826306784511  0.634675695775357  1.0000
  O   O7        1.0  0.3369790937678552  0.17452223737350891  0.34305491988900627  1.0000
  O   O8        1.0  0.23710146403723442  0.32567484803329005  0.8686262085938736  1.0000
