data_image0
_chemical_formula_structural       O8
_chemical_formula_sum              "O8"
_cell_length_a       5.369789702272613
_cell_length_b       5.369789702272613
_cell_length_c       4.389828171850124
_cell_angle_alpha    69.24482967881451
_cell_angle_beta     69.24482967881451
_cell_angle_gamma    70.78662063844564

_space_group_name_H-M_alt    "P 1"
_space_group_IT_number       1

loop_
  _space_group_symop_operation_xyz
  'x, y, z'

loop_
  _atom_site_type_symbol
  _atom_site_label
  _atom_site_symmetry_multiplicity
  _atom_site_fract_x
  _atom_site_fract_y
  _atom_site_fract_z
  _atom_site_occupancy
  O   O1        1.0  0.623839175901951  0.4189389154182024  0.6975354618139207  1.0000
  O   O2        1.0  0.6042499510488639  0.5564746362313855  0.43671466269778136  1.0000
  O   O3        1.0  0.7539255839306591  0.30660537087906903  0.717178371741312  1.0000
  O   O4        1.0  0.5062767012764198  0.8256757779492343  0.8536886499713248  1.0000
  O   O5        1.0  0.2856665239296916  0.9560081138887497  0.2511602993972275  1.0000
  O   O6        1.0  0.8678426477151095  0.1538767380167485  0.7776943748092862  1.0000
  O   O7        1.0  0.7666454539155865  0.45820048317925455  0.20368088443650834  1.0000
  O   O8        1.0  0.5915557098372455  0.32422000256311634  0.0623462578375964  1.0000
