data_image0
_chemical_formula_structural       O8
_chemical_formula_sum              "O8"
_cell_length_a       5.369789702272613
_cell_length_b       5.369789702272613
_cell_length_c       4.389828171850124
_cell_angle_alpha    69.24482967881451
_cell_angle_beta     69.24482967881451
_cell_angle_gamma    70.78662063844564

_space_group_name_H-M_alt    "P 1"
_space_group_IT_number       1

loop_
  _space_group_symop_operation_xyz
  'x, y, z'

loop_
  _atom_site_type_symbol
  _atom_site_label
  _atom_site_symmetry_multiplicity
  _atom_site_fract_x
  _atom_site_fract_y
  _atom_site_fract_z
  _atom_site_occupancy
  O   O1        1.0  0.49127685677959576  0.5341977545031553  0.5571509079075607  1.0000
  O   O2        1.0  0.42344930872795317  0.6800616629912355  0.042132210948004456  1.0000
  O   O3        1.0  0.8841538818746137  0.8367361943148026  0.6446739853532044  1.0000
  O   O4        1.0  0.3532649567884114  0.5262958478388917  0.2229733733316408  1.0000
  O   O5        1.0  0.8723984735706125  0.5751673236542469  0.9317367047387712  1.0000
  O   O6        1.0  0.30838910341874737  0.7187442326647897  0.8454509148971194  1.0000
  O   O7        1.0  0.571837503622298  0.009469874820389634  0.23281616336934263  1.0000
  O   O8        1.0  0.09522899415065211  0.11932663097529383  0.5230659120021954  1.0000
