data_image0
_chemical_formula_structural       O8
_chemical_formula_sum              "O8"
_cell_length_a       5.369789702272613
_cell_length_b       5.369789702272613
_cell_length_c       4.389828171850124
_cell_angle_alpha    69.24482967881451
_cell_angle_beta     69.24482967881451
_cell_angle_gamma    70.78662063844564

_space_group_name_H-M_alt    "P 1"
_space_group_IT_number       1

loop_
  _space_group_symop_operation_xyz
  'x, y, z'

loop_
  _atom_site_type_symbol
  _atom_site_label
  _atom_site_symmetry_multiplicity
  _atom_site_fract_x
  _atom_site_fract_y
  _atom_site_fract_z
  _atom_site_occupancy
  O   O1        1.0  0.8494514825303874  0.9479390321135455  0.8556472408449167  1.0000
  O   O2        1.0  0.8349325478798733  0.5418320376361301  0.31191752177429777  1.0000
  O   O3        1.0  0.7855537385109486  0.715077996084581  0.7551614816958363  1.0000
  O   O4        1.0  0.2959555445511626  0.3924729405618237  0.5992547606604397  1.0000
  O   O5        1.0  0.059427589002394754  0.25596165996697096  0.7441331719943065  1.0000
  O   O6        1.0  0.10529796222301968  0.9475974371825195  0.6463368947082735  1.0000
  O   O7        1.0  0.931088470383763  0.5610476499642383  0.06743051331994998  1.0000
  O   O8        1.0  0.13829492800685728  0.6380710390425746  0.02011794270686451  1.0000
