data_image0
_chemical_formula_structural       O8
_chemical_formula_sum              "O8"
_cell_length_a       5.369789702272613
_cell_length_b       5.369789702272613
_cell_length_c       4.389828171850124
_cell_angle_alpha    69.24482967881451
_cell_angle_beta     69.24482967881451
_cell_angle_gamma    70.78662063844564

_space_group_name_H-M_alt    "P 1"
_space_group_IT_number       1

loop_
  _space_group_symop_operation_xyz
  'x, y, z'

loop_
  _atom_site_type_symbol
  _atom_site_label
  _atom_site_symmetry_multiplicity
  _atom_site_fract_x
  _atom_site_fract_y
  _atom_site_fract_z
  _atom_site_occupancy
  O   O1        1.0  0.8898977868497546  0.4497400375448457  0.10049322261491511  1.0000
  O   O2        1.0  0.7088442204003194  0.5613934710928525  0.17521031921965502  1.0000
  O   O3        1.0  0.9083123919911458  0.9944611978227513  0.33530117986622443  1.0000
  O   O4        1.0  0.2754643654148978  0.5176367358228884  0.7214792846078968  1.0000
  O   O5        1.0  0.6362803693265917  0.7426531665568632  0.8579771710599502  1.0000
  O   O6        1.0  0.37187074706950085  0.3291653849550791  0.8135629500823427  1.0000
  O   O7        1.0  0.9505492613681135  0.9511751023344672  0.04981955031476737  1.0000
  O   O8        1.0  0.25878242740353485  0.45377494408722363  0.9461552665824797  1.0000
