data_image0
_chemical_formula_structural       O8
_chemical_formula_sum              "O8"
_cell_length_a       5.369789702272613
_cell_length_b       5.369789702272613
_cell_length_c       4.389828171850124
_cell_angle_alpha    69.24482967881451
_cell_angle_beta     69.24482967881451
_cell_angle_gamma    70.78662063844564

_space_group_name_H-M_alt    "P 1"
_space_group_IT_number       1

loop_
  _space_group_symop_operation_xyz
  'x, y, z'

loop_
  _atom_site_type_symbol
  _atom_site_label
  _atom_site_symmetry_multiplicity
  _atom_site_fract_x
  _atom_site_fract_y
  _atom_site_fract_z
  _atom_site_occupancy
  O   O1        1.0  0.2770524211293317  0.09335452594829263  0.9603847815853257  1.0000
  O   O2        1.0  0.6742361905241552  0.8901898719336998  0.1924390620234817  1.0000
  O   O3        1.0  0.47910064726186086  0.6539671610041538  0.2673592667357383  1.0000
  O   O4        1.0  0.8680914015710925  0.23295178417556706  0.6332278919706749  1.0000
  O   O5        1.0  0.13792986589457712  0.5988623059449374  0.33663920984045603  1.0000
  O   O6        1.0  0.023301712963369588  0.8212423968061202  0.7278849203114817  1.0000
  O   O7        1.0  0.18127944088375614  0.5762711003881833  0.3984875493427893  1.0000
  O   O8        1.0  0.35901037478403586  0.13316119243585334  0.48357552773207146  1.0000
