data_image0
_chemical_formula_structural       O8
_chemical_formula_sum              "O8"
_cell_length_a       5.369789702272613
_cell_length_b       5.369789702272613
_cell_length_c       4.389828171850124
_cell_angle_alpha    69.24482967881451
_cell_angle_beta     69.24482967881451
_cell_angle_gamma    70.78662063844564

_space_group_name_H-M_alt    "P 1"
_space_group_IT_number       1

loop_
  _space_group_symop_operation_xyz
  'x, y, z'

loop_
  _atom_site_type_symbol
  _atom_site_label
  _atom_site_symmetry_multiplicity
  _atom_site_fract_x
  _atom_site_fract_y
  _atom_site_fract_z
  _atom_site_occupancy
  O   O1        1.0  0.9595912901233916  0.1037048372067737  0.1675458269869381  1.0000
  O   O2        1.0  0.31983075838064345  0.2339215820092626  0.5163114061751912  1.0000
  O   O3        1.0  0.22440359587908176  0.7012664944070366  0.9579262119097862  1.0000
  O   O4        1.0  0.1769824734648182  0.5069668875853592  0.9904356058324476  1.0000
  O   O5        1.0  0.03198372788684445  0.4650439259570476  0.6015359211580318  1.0000
  O   O6        1.0  0.5252185578877935  0.693729639735448  0.6535354273638845  1.0000
  O   O7        1.0  0.058019352087418596  0.30475483591988706  0.4225003558952647  1.0000
  O   O8        1.0  0.7039721066584654  0.9906120662709652  0.6902082348217373  1.0000
