data_image0
_chemical_formula_structural       O8
_chemical_formula_sum              "O8"
_cell_length_a       5.369789702272613
_cell_length_b       5.369789702272613
_cell_length_c       4.389828171850124
_cell_angle_alpha    69.24482967881451
_cell_angle_beta     69.24482967881451
_cell_angle_gamma    70.78662063844564

_space_group_name_H-M_alt    "P 1"
_space_group_IT_number       1

loop_
  _space_group_symop_operation_xyz
  'x, y, z'

loop_
  _atom_site_type_symbol
  _atom_site_label
  _atom_site_symmetry_multiplicity
  _atom_site_fract_x
  _atom_site_fract_y
  _atom_site_fract_z
  _atom_site_occupancy
  O   O1        1.0  0.5990899496537114  0.5574749767122421  0.3139781567143096  1.0000
  O   O2        1.0  0.9096708582250557  0.6609486134533213  0.9273503467495203  1.0000
  O   O3        1.0  0.7759338172723034  0.2529056583303131  0.9358477731760004  1.0000
  O   O4        1.0  0.5889701814263795  0.7073112170739281  0.7489117218965333  1.0000
  O   O5        1.0  0.24402269693014134  0.1558816682948727  0.3168648223115996  1.0000
  O   O6        1.0  0.1532805260498531  0.4465553400762765  0.41897085820088087  1.0000
  O   O7        1.0  0.79298791358055  0.5576116755655782  0.9948364279589512  1.0000
  O   O8        1.0  0.9360448543544351  0.6613108464931741  0.3432398730847357  1.0000
