data_image0
_chemical_formula_structural       O8
_chemical_formula_sum              "O8"
_cell_length_a       5.369789702272613
_cell_length_b       5.369789702272613
_cell_length_c       4.389828171850124
_cell_angle_alpha    69.24482967881451
_cell_angle_beta     69.24482967881451
_cell_angle_gamma    70.78662063844564

_space_group_name_H-M_alt    "P 1"
_space_group_IT_number       1

loop_
  _space_group_symop_operation_xyz
  'x, y, z'

loop_
  _atom_site_type_symbol
  _atom_site_label
  _atom_site_symmetry_multiplicity
  _atom_site_fract_x
  _atom_site_fract_y
  _atom_site_fract_z
  _atom_site_occupancy
  O   O1        1.0  0.554366265336192  0.8647936623415227  0.6967176867987064  1.0000
  O   O2        1.0  0.6694870050975741  0.3278565750986502  0.8490096588567013  1.0000
  O   O3        1.0  0.8972190628881975  0.5783105862105771  0.4071073247855139  1.0000
  O   O4        1.0  0.11016410235473018  0.791242849064302  0.6573930112663664  1.0000
  O   O5        1.0  0.01826465029713865  0.23165810639829232  0.1959023820180903  1.0000
  O   O6        1.0  0.7964798937982422  0.34566437186365917  0.169029328607202  1.0000
  O   O7        1.0  0.5730140308545941  0.6373021455256946  0.17726094028753003  1.0000
  O   O8        1.0  0.3810070777242487  0.22317179597196635  0.847578699022467  1.0000
