data_image0
_chemical_formula_structural       O8
_chemical_formula_sum              "O8"
_cell_length_a       5.369789702272613
_cell_length_b       5.369789702272613
_cell_length_c       4.389828171850124
_cell_angle_alpha    69.24482967881451
_cell_angle_beta     69.24482967881451
_cell_angle_gamma    70.78662063844564

_space_group_name_H-M_alt    "P 1"
_space_group_IT_number       1

loop_
  _space_group_symop_operation_xyz
  'x, y, z'

loop_
  _atom_site_type_symbol
  _atom_site_label
  _atom_site_symmetry_multiplicity
  _atom_site_fract_x
  _atom_site_fract_y
  _atom_site_fract_z
  _atom_site_occupancy
  O   O1        1.0  0.9606937238087029  0.40599543981183217  0.2342464513504261  1.0000
  O   O2        1.0  0.07786396987836497  0.9205173710449657  0.08602531467027319  1.0000
  O   O3        1.0  0.679875783889706  0.39682675643188503  0.3046145305221657  1.0000
  O   O4        1.0  0.9538286520084114  0.7432363156945629  0.31611089820280114  1.0000
  O   O5        1.0  0.5229818389154985  0.7570809748205285  0.5820784877675251  1.0000
  O   O6        1.0  0.28250475607807957  0.5164196955184188  0.7227667758328735  1.0000
  O   O7        1.0  0.5492070287967046  0.8563043393494354  0.7716897746452602  1.0000
  O   O8        1.0  0.97304474410371  0.4036184079932559  0.9824676107661503  1.0000
