data_image0
_chemical_formula_structural       O8
_chemical_formula_sum              "O8"
_cell_length_a       5.369789702272613
_cell_length_b       5.369789702272613
_cell_length_c       4.389828171850124
_cell_angle_alpha    69.24482967881451
_cell_angle_beta     69.24482967881451
_cell_angle_gamma    70.78662063844564

_space_group_name_H-M_alt    "P 1"
_space_group_IT_number       1

loop_
  _space_group_symop_operation_xyz
  'x, y, z'

loop_
  _atom_site_type_symbol
  _atom_site_label
  _atom_site_symmetry_multiplicity
  _atom_site_fract_x
  _atom_site_fract_y
  _atom_site_fract_z
  _atom_site_occupancy
  O   O1        1.0  0.02313250962292379  0.7691853713799084  0.712974607034087  1.0000
  O   O2        1.0  0.6326108778194168  0.13859355760902758  0.6852869596675575  1.0000
  O   O3        1.0  0.5092706143081003  0.4328819453593411  0.7127267125301842  1.0000
  O   O4        1.0  0.862434333859886  0.9549592266127576  0.5757384886056371  1.0000
  O   O5        1.0  0.536504797635784  0.8669113164121303  0.9133820471071346  1.0000
  O   O6        1.0  0.8847856527817286  0.057541141314608524  0.5607403666012694  1.0000
  O   O7        1.0  0.014249293452879286  0.8217723005873729  0.7865551228410936  1.0000
  O   O8        1.0  0.5370120941152674  0.9581554984828689  0.052594483261014346  1.0000
