data_image0
_chemical_formula_structural       O8
_chemical_formula_sum              "O8"
_cell_length_a       5.369789702272613
_cell_length_b       5.369789702272613
_cell_length_c       4.389828171850124
_cell_angle_alpha    69.24482967881451
_cell_angle_beta     69.24482967881451
_cell_angle_gamma    70.78662063844564

_space_group_name_H-M_alt    "P 1"
_space_group_IT_number       1

loop_
  _space_group_symop_operation_xyz
  'x, y, z'

loop_
  _atom_site_type_symbol
  _atom_site_label
  _atom_site_symmetry_multiplicity
  _atom_site_fract_x
  _atom_site_fract_y
  _atom_site_fract_z
  _atom_site_occupancy
  O   O1        1.0  0.1266429692419635  0.3458741726756105  0.923065473226913  1.0000
  O   O2        1.0  0.3950902275136805  0.6184669714334916  0.46551261489951656  1.0000
  O   O3        1.0  0.5039868930398228  0.009570366951841436  0.622681020902772  1.0000
  O   O4        1.0  0.7519416515809283  0.20245276461845307  0.3300968173466323  1.0000
  O   O5        1.0  0.7675737701212455  0.4097370889758132  0.5218815819307339  1.0000
  O   O6        1.0  0.1945680067014237  0.34437774050514847  0.14736610287611285  1.0000
  O   O7        1.0  0.9295139519267153  0.6523323795393061  0.29628041952351225  1.0000
  O   O8        1.0  0.3306830854100049  0.4171885588935056  0.6931162625044005  1.0000
