data_image0
_chemical_formula_structural       O8
_chemical_formula_sum              "O8"
_cell_length_a       5.369789702272613
_cell_length_b       5.369789702272613
_cell_length_c       4.389828171850124
_cell_angle_alpha    69.24482967881451
_cell_angle_beta     69.24482967881451
_cell_angle_gamma    70.78662063844564

_space_group_name_H-M_alt    "P 1"
_space_group_IT_number       1

loop_
  _space_group_symop_operation_xyz
  'x, y, z'

loop_
  _atom_site_type_symbol
  _atom_site_label
  _atom_site_symmetry_multiplicity
  _atom_site_fract_x
  _atom_site_fract_y
  _atom_site_fract_z
  _atom_site_occupancy
  O   O1        1.0  0.11275570349626873  0.8883175286568155  0.20691480524768835  1.0000
  O   O2        1.0  0.9874280158289963  0.2068668068526165  0.9300532972477313  1.0000
  O   O3        1.0  0.17771479867181483  0.5674486890458041  0.12495570316819737  1.0000
  O   O4        1.0  0.44371861227024834  0.3198741236319318  0.07031752814775416  1.0000
  O   O5        1.0  0.04692826199898548  0.24058101172805024  0.870722779962577  1.0000
  O   O6        1.0  0.49330719626422237  0.925542268839969  0.27535023844860884  1.0000
  O   O7        1.0  0.04996487689451001  0.9468010725586424  0.11113708974918524  1.0000
  O   O8        1.0  0.6881817541661306  0.9045681717535237  0.4105486212978775  1.0000
