data_image0
_chemical_formula_structural       O8
_chemical_formula_sum              "O8"
_cell_length_a       5.369789702272613
_cell_length_b       5.369789702272613
_cell_length_c       4.389828171850124
_cell_angle_alpha    69.24482967881451
_cell_angle_beta     69.24482967881451
_cell_angle_gamma    70.78662063844564

_space_group_name_H-M_alt    "P 1"
_space_group_IT_number       1

loop_
  _space_group_symop_operation_xyz
  'x, y, z'

loop_
  _atom_site_type_symbol
  _atom_site_label
  _atom_site_symmetry_multiplicity
  _atom_site_fract_x
  _atom_site_fract_y
  _atom_site_fract_z
  _atom_site_occupancy
  O   O1        1.0  0.6768739045881116  0.6167294770326874  0.534524513581748  1.0000
  O   O2        1.0  0.06756591992451355  0.6525223586518614  0.7480975260753056  1.0000
  O   O3        1.0  0.762832408384206  0.49634102177659933  0.209291992248815  1.0000
  O   O4        1.0  0.16842216370459795  0.4707882202652325  0.10328646451440449  1.0000
  O   O5        1.0  0.6966216262779623  0.3138462662858652  0.12781142830780823  1.0000
  O   O6        1.0  0.27050785814154654  0.10723975958024212  0.4628149403722439  1.0000
  O   O7        1.0  0.3345402854687607  0.28062486185375923  0.28051929564924194  1.0000
  O   O8        1.0  0.022635799776718812  0.06190762951541928  0.533653692187599  1.0000
