data_image0
_chemical_formula_structural       O8
_chemical_formula_sum              "O8"
_cell_length_a       5.369789702272613
_cell_length_b       5.369789702272613
_cell_length_c       4.389828171850124
_cell_angle_alpha    69.24482967881451
_cell_angle_beta     69.24482967881451
_cell_angle_gamma    70.78662063844564

_space_group_name_H-M_alt    "P 1"
_space_group_IT_number       1

loop_
  _space_group_symop_operation_xyz
  'x, y, z'

loop_
  _atom_site_type_symbol
  _atom_site_label
  _atom_site_symmetry_multiplicity
  _atom_site_fract_x
  _atom_site_fract_y
  _atom_site_fract_z
  _atom_site_occupancy
  O   O1        1.0  0.7978608947655133  0.6970791393049112  0.7443089826388132  1.0000
  O   O2        1.0  0.18645489068168075  0.9165086262554425  0.21942823288453894  1.0000
  O   O3        1.0  0.44757637971569153  0.7771280967635334  0.9277561206731519  1.0000
  O   O4        1.0  0.8796452361745892  0.5820962332342345  0.9915505012442001  1.0000
  O   O5        1.0  0.25165557835198626  0.8303767691733293  0.8206352764287743  1.0000
  O   O6        1.0  0.1604747397261277  0.21283355837203644  0.5873210846557058  1.0000
  O   O7        1.0  0.9526321677315508  0.6200293445079268  0.3383396674758643  1.0000
  O   O8        1.0  0.3237022904391833  0.36394852708878034  0.3706578191065404  1.0000
