data_image0
_chemical_formula_structural       O8
_chemical_formula_sum              "O8"
_cell_length_a       5.369789702272613
_cell_length_b       5.369789702272613
_cell_length_c       4.389828171850124
_cell_angle_alpha    69.24482967881451
_cell_angle_beta     69.24482967881451
_cell_angle_gamma    70.78662063844564

_space_group_name_H-M_alt    "P 1"
_space_group_IT_number       1

loop_
  _space_group_symop_operation_xyz
  'x, y, z'

loop_
  _atom_site_type_symbol
  _atom_site_label
  _atom_site_symmetry_multiplicity
  _atom_site_fract_x
  _atom_site_fract_y
  _atom_site_fract_z
  _atom_site_occupancy
  O   O1        1.0  0.2573096501521839  0.19699295039409748  0.4906493327333479  1.0000
  O   O2        1.0  0.08421911835181817  0.5931047496841089  0.2894533643051176  1.0000
  O   O3        1.0  0.17046180101470831  0.537786996454571  0.9106804681012903  1.0000
  O   O4        1.0  0.5071728229727057  0.6544444108038081  0.934455381170805  1.0000
  O   O5        1.0  0.8173780108100459  0.13809894781856613  0.6428638379442191  1.0000
  O   O6        1.0  0.2554905130166727  0.670054666731982  0.2888605744585604  1.0000
  O   O7        1.0  0.17176622338175918  0.05635558730283208  0.175193720489915  1.0000
  O   O8        1.0  0.7362039766767872  0.15316206088603224  0.2678413743543331  1.0000
