data_image0
_chemical_formula_structural       O8
_chemical_formula_sum              "O8"
_cell_length_a       5.369789702272613
_cell_length_b       5.369789702272613
_cell_length_c       4.389828171850124
_cell_angle_alpha    69.24482967881451
_cell_angle_beta     69.24482967881451
_cell_angle_gamma    70.78662063844564

_space_group_name_H-M_alt    "P 1"
_space_group_IT_number       1

loop_
  _space_group_symop_operation_xyz
  'x, y, z'

loop_
  _atom_site_type_symbol
  _atom_site_label
  _atom_site_symmetry_multiplicity
  _atom_site_fract_x
  _atom_site_fract_y
  _atom_site_fract_z
  _atom_site_occupancy
  O   O1        1.0  0.6238704650472928  0.6123044022086347  0.9590189385398205  1.0000
  O   O2        1.0  0.7700225288701006  0.5867909231094401  0.6984475360691391  1.0000
  O   O3        1.0  0.82662261507474  0.20209827986220574  0.5972671519769577  1.0000
  O   O4        1.0  0.9555041240112505  0.09969017382632561  0.19736635050765727  1.0000
  O   O5        1.0  0.6336385816076202  0.6106866700748093  0.5406166668771135  1.0000
  O   O6        1.0  0.5207845777323605  0.21009969657412597  0.41424969014855684  1.0000
  O   O7        1.0  0.780388512767356  0.18891183507052034  0.930762201538009  1.0000
  O   O8        1.0  0.8891677905673276  0.48941771196839223  0.6622715190109218  1.0000
