data_image0
_chemical_formula_structural       O8
_chemical_formula_sum              "O8"
_cell_length_a       5.369789702272613
_cell_length_b       5.369789702272613
_cell_length_c       4.389828171850124
_cell_angle_alpha    69.24482967881451
_cell_angle_beta     69.24482967881451
_cell_angle_gamma    70.78662063844564

_space_group_name_H-M_alt    "P 1"
_space_group_IT_number       1

loop_
  _space_group_symop_operation_xyz
  'x, y, z'

loop_
  _atom_site_type_symbol
  _atom_site_label
  _atom_site_symmetry_multiplicity
  _atom_site_fract_x
  _atom_site_fract_y
  _atom_site_fract_z
  _atom_site_occupancy
  O   O1        1.0  0.467832641248882  0.3170766081280363  0.4909744390088626  1.0000
  O   O2        1.0  0.778889204135865  0.95775388023322  0.968926213017923  1.0000
  O   O3        1.0  0.2804256552062654  0.2572754024742281  0.45496964380513205  1.0000
  O   O4        1.0  0.6116762609109996  0.6038094846044153  0.4004159112842771  1.0000
  O   O5        1.0  0.6489153568774029  0.9894429010717154  0.5257847230728672  1.0000
  O   O6        1.0  0.08865393442944125  0.5200806825194562  0.24757123133680192  1.0000
  O   O7        1.0  0.3408975226101525  0.07464075618681676  0.7784336310677205  1.0000
  O   O8        1.0  0.782708611200313  0.2799198979603865  0.1329243306396819  1.0000
