data_image0
_chemical_formula_structural       O8
_chemical_formula_sum              "O8"
_cell_length_a       5.369789702272613
_cell_length_b       5.369789702272613
_cell_length_c       4.389828171850124
_cell_angle_alpha    69.24482967881451
_cell_angle_beta     69.24482967881451
_cell_angle_gamma    70.78662063844564

_space_group_name_H-M_alt    "P 1"
_space_group_IT_number       1

loop_
  _space_group_symop_operation_xyz
  'x, y, z'

loop_
  _atom_site_type_symbol
  _atom_site_label
  _atom_site_symmetry_multiplicity
  _atom_site_fract_x
  _atom_site_fract_y
  _atom_site_fract_z
  _atom_site_occupancy
  O   O1        1.0  0.6236891956651727  0.4591633298829514  0.8989655398146148  1.0000
  O   O2        1.0  0.05149476226643568  0.1667989569938726  0.5620973561281133  1.0000
  O   O3        1.0  0.7878917447598255  0.4070803475372706  0.5945574744302213  1.0000
  O   O4        1.0  0.6305712307113254  0.6872265926317969  0.4411995065102703  1.0000
  O   O5        1.0  0.9176211292406435  0.6236633383925643  0.021863115125286825  1.0000
  O   O6        1.0  0.4769783362657716  0.026199599692681375  0.6686150940630924  1.0000
  O   O7        1.0  0.7793240711594898  0.014029008344049743  0.7430961417827326  1.0000
  O   O8        1.0  0.7324301487646032  0.6158387695402627  0.06960649829943222  1.0000
