data_image0
_chemical_formula_structural       O8
_chemical_formula_sum              "O8"
_cell_length_a       5.369789702272613
_cell_length_b       5.369789702272613
_cell_length_c       4.389828171850124
_cell_angle_alpha    69.24482967881451
_cell_angle_beta     69.24482967881451
_cell_angle_gamma    70.78662063844564

_space_group_name_H-M_alt    "P 1"
_space_group_IT_number       1

loop_
  _space_group_symop_operation_xyz
  'x, y, z'

loop_
  _atom_site_type_symbol
  _atom_site_label
  _atom_site_symmetry_multiplicity
  _atom_site_fract_x
  _atom_site_fract_y
  _atom_site_fract_z
  _atom_site_occupancy
  O   O1        1.0  0.27442783769295276  0.4555212332901508  0.9336110742485033  1.0000
  O   O2        1.0  0.694099791785348  0.23945092664326495  0.6226703317914541  1.0000
  O   O3        1.0  0.563501691679761  0.11225587757328981  0.7584158300957498  1.0000
  O   O4        1.0  0.859051656385649  0.7572609536406567  0.0490490288286658  1.0000
  O   O5        1.0  0.21783862519406938  0.9542312221998088  0.3757695499738887  1.0000
  O   O6        1.0  0.7187647900671195  0.02165844833157138  0.9734741162347778  1.0000
  O   O7        1.0  0.34014312488535126  0.19119989525052006  0.9703447050827592  1.0000
  O   O8        1.0  0.3321736496240604  0.2684208872974825  0.3166654073956039  1.0000
