data_image0
_chemical_formula_structural       O8
_chemical_formula_sum              "O8"
_cell_length_a       5.369789702272613
_cell_length_b       5.369789702272613
_cell_length_c       4.389828171850124
_cell_angle_alpha    69.24482967881451
_cell_angle_beta     69.24482967881451
_cell_angle_gamma    70.78662063844564

_space_group_name_H-M_alt    "P 1"
_space_group_IT_number       1

loop_
  _space_group_symop_operation_xyz
  'x, y, z'

loop_
  _atom_site_type_symbol
  _atom_site_label
  _atom_site_symmetry_multiplicity
  _atom_site_fract_x
  _atom_site_fract_y
  _atom_site_fract_z
  _atom_site_occupancy
  O   O1        1.0  0.896853894577549  0.5081287646559294  0.6155284453830547  1.0000
  O   O2        1.0  0.7186461961664001  0.9989897164247523  0.2624347189652241  1.0000
  O   O3        1.0  0.24203749879163183  0.07997580296450835  0.8568681768796509  1.0000
  O   O4        1.0  0.2696118037421904  0.4826467489610504  0.07138045597879028  1.0000
  O   O5        1.0  0.15838089475429662  0.5760099705756931  0.46143003522172776  1.0000
  O   O6        1.0  0.05422999548594376  0.16952155436488425  0.7070522529065482  1.0000
  O   O7        1.0  0.9246018538684231  0.3953707906896158  0.37009628369342096  1.0000
  O   O8        1.0  0.7356376752954752  0.7893562551896727  0.6552095346669802  1.0000
