data_image0
_chemical_formula_structural       O8
_chemical_formula_sum              "O8"
_cell_length_a       5.369789702272613
_cell_length_b       5.369789702272613
_cell_length_c       4.389828171850124
_cell_angle_alpha    69.24482967881451
_cell_angle_beta     69.24482967881451
_cell_angle_gamma    70.78662063844564

_space_group_name_H-M_alt    "P 1"
_space_group_IT_number       1

loop_
  _space_group_symop_operation_xyz
  'x, y, z'

loop_
  _atom_site_type_symbol
  _atom_site_label
  _atom_site_symmetry_multiplicity
  _atom_site_fract_x
  _atom_site_fract_y
  _atom_site_fract_z
  _atom_site_occupancy
  O   O1        1.0  0.7914724266823683  0.08595684240440704  0.6070411364503627  1.0000
  O   O2        1.0  0.47533591144522447  0.05783203299499817  0.5400580229660932  1.0000
  O   O3        1.0  0.019801210748298104  0.08209598538255847  0.9342353643529435  1.0000
  O   O4        1.0  0.8098906271237354  0.7786969720068768  0.3472917099686743  1.0000
  O   O5        1.0  0.7521962398798667  0.6733058485027783  0.8663152833701737  1.0000
  O   O6        1.0  0.02859326140772822  0.8345219902909413  0.7273662552102209  1.0000
  O   O7        1.0  0.5170858575515673  0.6381535479870601  0.9785337217835863  1.0000
  O   O8        1.0  0.605626188134643  0.8494365259326067  0.9991583081553728  1.0000
