data_image0
_chemical_formula_structural       O8
_chemical_formula_sum              "O8"
_cell_length_a       5.369789702272613
_cell_length_b       5.369789702272613
_cell_length_c       4.389828171850124
_cell_angle_alpha    69.24482967881451
_cell_angle_beta     69.24482967881451
_cell_angle_gamma    70.78662063844564

_space_group_name_H-M_alt    "P 1"
_space_group_IT_number       1

loop_
  _space_group_symop_operation_xyz
  'x, y, z'

loop_
  _atom_site_type_symbol
  _atom_site_label
  _atom_site_symmetry_multiplicity
  _atom_site_fract_x
  _atom_site_fract_y
  _atom_site_fract_z
  _atom_site_occupancy
  O   O1        1.0  0.5028122158022823  0.9325271713039482  0.46827205847763764  1.0000
  O   O2        1.0  0.03956740912358225  0.7868241891575494  0.3144908539270972  1.0000
  O   O3        1.0  0.5970161035611028  0.9321182106891861  0.32065809012205015  1.0000
  O   O4        1.0  0.023256852546261086  0.31845659475315813  0.040952297543462635  1.0000
  O   O5        1.0  0.49927415478498816  0.6878232257598036  0.3414185943135417  1.0000
  O   O6        1.0  0.10365459156715318  0.01752573522827916  0.7485376300074442  1.0000
  O   O7        1.0  0.7848117606337119  0.30909606999966144  0.21073777803136196  1.0000
  O   O8        1.0  0.449607551690562  0.015628709651200445  0.5549333809710184  1.0000
