data_image0
_chemical_formula_structural       O8
_chemical_formula_sum              "O8"
_cell_length_a       5.369789702272613
_cell_length_b       5.369789702272613
_cell_length_c       4.389828171850124
_cell_angle_alpha    69.24482967881451
_cell_angle_beta     69.24482967881451
_cell_angle_gamma    70.78662063844564

_space_group_name_H-M_alt    "P 1"
_space_group_IT_number       1

loop_
  _space_group_symop_operation_xyz
  'x, y, z'

loop_
  _atom_site_type_symbol
  _atom_site_label
  _atom_site_symmetry_multiplicity
  _atom_site_fract_x
  _atom_site_fract_y
  _atom_site_fract_z
  _atom_site_occupancy
  O   O1        1.0  0.3754724362952553  0.7354966992772773  0.7182481533493217  1.0000
  O   O2        1.0  0.5267776153888377  0.19247587421973122  0.41229783818629073  1.0000
  O   O3        1.0  0.4740633849188405  0.48871813988283463  0.3946413440211529  1.0000
  O   O4        1.0  0.27564147725402677  0.8743896440265129  0.023932033323585955  1.0000
  O   O5        1.0  0.8165130501738957  0.44141513375963726  0.8979379765186621  1.0000
  O   O6        1.0  0.02250142494994023  0.2023073062747578  0.8640979779236417  1.0000
  O   O7        1.0  0.9098900848163751  0.20921808231075545  0.8820332039444878  1.0000
  O   O8        1.0  0.5991421690134757  0.855979367770388  0.8068102598780982  1.0000
