data_image0
_chemical_formula_structural       O8
_chemical_formula_sum              "O8"
_cell_length_a       5.369789702272613
_cell_length_b       5.369789702272613
_cell_length_c       4.389828171850124
_cell_angle_alpha    69.24482967881451
_cell_angle_beta     69.24482967881451
_cell_angle_gamma    70.78662063844564

_space_group_name_H-M_alt    "P 1"
_space_group_IT_number       1

loop_
  _space_group_symop_operation_xyz
  'x, y, z'

loop_
  _atom_site_type_symbol
  _atom_site_label
  _atom_site_symmetry_multiplicity
  _atom_site_fract_x
  _atom_site_fract_y
  _atom_site_fract_z
  _atom_site_occupancy
  O   O1        1.0  0.8917391531174134  0.984478924634117  0.03766554855604909  1.0000
  O   O2        1.0  0.24204531957985864  0.29943014933829204  0.05823764564265588  1.0000
  O   O3        1.0  0.7930834537434812  0.17413292025847227  0.7489659952790291  1.0000
  O   O4        1.0  0.2967749935038242  0.2949245009897421  0.6503010545987848  1.0000
  O   O5        1.0  0.007500675082610542  0.2746056894388609  0.19272397016177933  1.0000
  O   O6        1.0  0.5763530188267225  0.9009636431508667  0.6027482917745175  1.0000
  O   O7        1.0  0.4357478332356095  0.316225881832807  0.200103492852449  1.0000
  O   O8        1.0  0.7567570059759205  0.7552378903858283  0.5092538256376713  1.0000
