data_image0
_chemical_formula_structural       O8
_chemical_formula_sum              "O8"
_cell_length_a       5.369789702272613
_cell_length_b       5.369789702272613
_cell_length_c       4.389828171850124
_cell_angle_alpha    69.24482967881451
_cell_angle_beta     69.24482967881451
_cell_angle_gamma    70.78662063844564

_space_group_name_H-M_alt    "P 1"
_space_group_IT_number       1

loop_
  _space_group_symop_operation_xyz
  'x, y, z'

loop_
  _atom_site_type_symbol
  _atom_site_label
  _atom_site_symmetry_multiplicity
  _atom_site_fract_x
  _atom_site_fract_y
  _atom_site_fract_z
  _atom_site_occupancy
  O   O1        1.0  0.15320258741041926  0.14690842684542105  0.6083000066514899  1.0000
  O   O2        1.0  0.6420751291427678  0.040920761699318575  0.6136857775788656  1.0000
  O   O3        1.0  0.5793327217183091  0.041396363593566576  0.279933965916328  1.0000
  O   O4        1.0  0.5944857464075426  0.9088510554590528  0.07413399250663488  1.0000
  O   O5        1.0  0.7810037185190044  0.6299712757845981  0.5711328277688708  1.0000
  O   O6        1.0  0.4858505834425486  0.197520715358932  0.41677726777690083  1.0000
  O   O7        1.0  0.810943038138749  0.04276146715545548  0.3299937625219975  1.0000
  O   O8        1.0  0.9531082680879663  0.9916694477281283  0.10604267809516443  1.0000
