data_image0
_chemical_formula_structural       O8
_chemical_formula_sum              "O8"
_cell_length_a       5.369789702272613
_cell_length_b       5.369789702272613
_cell_length_c       4.389828171850124
_cell_angle_alpha    69.24482967881451
_cell_angle_beta     69.24482967881451
_cell_angle_gamma    70.78662063844564

_space_group_name_H-M_alt    "P 1"
_space_group_IT_number       1

loop_
  _space_group_symop_operation_xyz
  'x, y, z'

loop_
  _atom_site_type_symbol
  _atom_site_label
  _atom_site_symmetry_multiplicity
  _atom_site_fract_x
  _atom_site_fract_y
  _atom_site_fract_z
  _atom_site_occupancy
  O   O1        1.0  0.5534177415690529  0.0662754482753769  0.2903758796608997  1.0000
  O   O2        1.0  0.37778186275600945  0.45633027917252633  0.5704429012022203  1.0000
  O   O3        1.0  0.26699368998731643  0.6138276898460262  0.6450142866879602  1.0000
  O   O4        1.0  0.26327740220627405  0.9199640469477686  0.4175524966692308  1.0000
  O   O5        1.0  0.9681651403476152  0.9559986186698595  0.16283923232194653  1.0000
  O   O6        1.0  0.38670839643694777  0.8236645039847517  0.19852535450661435  1.0000
  O   O7        1.0  0.9061463756031802  0.3838584360109394  0.037999359146597245  1.0000
  O   O8        1.0  0.2775109707879544  0.7800812734200635  0.6772495619012497  1.0000
