data_image0
_chemical_formula_structural       O8
_chemical_formula_sum              "O8"
_cell_length_a       5.369789702272613
_cell_length_b       5.369789702272613
_cell_length_c       4.389828171850124
_cell_angle_alpha    69.24482967881451
_cell_angle_beta     69.24482967881451
_cell_angle_gamma    70.78662063844564

_space_group_name_H-M_alt    "P 1"
_space_group_IT_number       1

loop_
  _space_group_symop_operation_xyz
  'x, y, z'

loop_
  _atom_site_type_symbol
  _atom_site_label
  _atom_site_symmetry_multiplicity
  _atom_site_fract_x
  _atom_site_fract_y
  _atom_site_fract_z
  _atom_site_occupancy
  O   O1        1.0  0.4892379552285415  0.6361555928375071  0.768566490894798  1.0000
  O   O2        1.0  0.9583205455406016  0.33263954848243316  0.31340489057590304  1.0000
  O   O3        1.0  0.5827652619064736  0.5658359742418213  0.7050633114934932  1.0000
  O   O4        1.0  0.7377270779169183  0.2959609144876665  0.19156668351545392  1.0000
  O   O5        1.0  0.11408777973185735  0.10296342973168837  0.708396167857245  1.0000
  O   O6        1.0  0.9552622487201798  0.883406487060725  0.30521219275196687  1.0000
  O   O7        1.0  0.4531993172327198  0.867378795621434  0.03992304342217068  1.0000
  O   O8        1.0  0.7093991674780575  0.31565870190026324  0.9678674747635014  1.0000
