data_image0
_chemical_formula_structural       O8
_chemical_formula_sum              "O8"
_cell_length_a       5.369789702272613
_cell_length_b       5.369789702272613
_cell_length_c       4.389828171850124
_cell_angle_alpha    69.24482967881451
_cell_angle_beta     69.24482967881451
_cell_angle_gamma    70.78662063844564

_space_group_name_H-M_alt    "P 1"
_space_group_IT_number       1

loop_
  _space_group_symop_operation_xyz
  'x, y, z'

loop_
  _atom_site_type_symbol
  _atom_site_label
  _atom_site_symmetry_multiplicity
  _atom_site_fract_x
  _atom_site_fract_y
  _atom_site_fract_z
  _atom_site_occupancy
  O   O1        1.0  0.5842384548158126  0.9965336088661516  0.9983040965415597  1.0000
  O   O2        1.0  0.6769574565936693  0.6959245073722116  0.28032884017562765  1.0000
  O   O3        1.0  0.6543763624831145  0.43150507818637607  0.10141935407629887  1.0000
  O   O4        1.0  0.6271410740728101  0.4289524413481298  0.4369722545002759  1.0000
  O   O5        1.0  0.24244703563086034  0.20234778833646772  0.8827841063922222  1.0000
  O   O6        1.0  0.021240155928431648  0.3124232761459531  0.2615766614897268  1.0000
  O   O7        1.0  0.13676617680016534  0.17045408794926686  0.8874405817730633  1.0000
  O   O8        1.0  0.0568350531862869  0.7618595556795071  0.1511729034179723  1.0000
