data_image0
_chemical_formula_structural       O8
_chemical_formula_sum              "O8"
_cell_length_a       5.369789702272613
_cell_length_b       5.369789702272613
_cell_length_c       4.389828171850124
_cell_angle_alpha    69.24482967881451
_cell_angle_beta     69.24482967881451
_cell_angle_gamma    70.78662063844564

_space_group_name_H-M_alt    "P 1"
_space_group_IT_number       1

loop_
  _space_group_symop_operation_xyz
  'x, y, z'

loop_
  _atom_site_type_symbol
  _atom_site_label
  _atom_site_symmetry_multiplicity
  _atom_site_fract_x
  _atom_site_fract_y
  _atom_site_fract_z
  _atom_site_occupancy
  O   O1        1.0  0.010642118221952046  0.6445036370734236  0.22070849631727896  1.0000
  O   O2        1.0  0.5181384978736916  0.8072305953460699  0.9528404723654944  1.0000
  O   O3        1.0  0.2614542323919551  0.6668483767702291  0.9943398709168356  1.0000
  O   O4        1.0  0.9544701349366775  0.5560646347409595  0.7469263730587343  1.0000
  O   O5        1.0  0.9195212486413666  0.9017047124176472  0.8017800074011552  1.0000
  O   O6        1.0  0.7745429026953872  0.23748945320690673  0.9653098577546295  1.0000
  O   O7        1.0  0.7307605444153751  0.6992581156217383  0.8643580884446997  1.0000
  O   O8        1.0  0.8304711807389076  0.48689973156575306  0.4537372086564879  1.0000
