data_image0
_chemical_formula_structural       O8
_chemical_formula_sum              "O8"
_cell_length_a       5.369789702272613
_cell_length_b       5.369789702272613
_cell_length_c       4.389828171850124
_cell_angle_alpha    69.24482967881451
_cell_angle_beta     69.24482967881451
_cell_angle_gamma    70.78662063844564

_space_group_name_H-M_alt    "P 1"
_space_group_IT_number       1

loop_
  _space_group_symop_operation_xyz
  'x, y, z'

loop_
  _atom_site_type_symbol
  _atom_site_label
  _atom_site_symmetry_multiplicity
  _atom_site_fract_x
  _atom_site_fract_y
  _atom_site_fract_z
  _atom_site_occupancy
  O   O1        1.0  0.2600321923666975  0.6037168786606149  0.57159058343737  1.0000
  O   O2        1.0  0.35453178546911346  0.7291690026288471  0.45579394841784193  1.0000
  O   O3        1.0  0.8929685309447848  0.7326710085817822  0.18930979797630343  1.0000
  O   O4        1.0  0.41774263830144776  0.6634892726386781  0.22228989300036028  1.0000
  O   O5        1.0  0.9285862638424227  0.21367290806582417  0.1819753147839478  1.0000
  O   O6        1.0  0.3289897603948866  0.49995417217776916  0.49413109813704637  1.0000
  O   O7        1.0  0.9152643328023125  0.5650803289995885  0.33159089040779577  1.0000
  O   O8        1.0  0.9018858749728516  0.9922457772920223  0.5533180946409075  1.0000
