data_image0
_chemical_formula_structural       O8
_chemical_formula_sum              "O8"
_cell_length_a       5.369789702272613
_cell_length_b       5.369789702272613
_cell_length_c       4.389828171850124
_cell_angle_alpha    69.24482967881451
_cell_angle_beta     69.24482967881451
_cell_angle_gamma    70.78662063844564

_space_group_name_H-M_alt    "P 1"
_space_group_IT_number       1

loop_
  _space_group_symop_operation_xyz
  'x, y, z'

loop_
  _atom_site_type_symbol
  _atom_site_label
  _atom_site_symmetry_multiplicity
  _atom_site_fract_x
  _atom_site_fract_y
  _atom_site_fract_z
  _atom_site_occupancy
  O   O1        1.0  0.46176348945874945  0.20166582635124541  0.5839599537098152  1.0000
  O   O2        1.0  0.57275133225167  0.14359417306100397  0.27747624918556824  1.0000
  O   O3        1.0  0.1887396097089713  0.3366161760409909  0.363824542921904  1.0000
  O   O4        1.0  0.2513568765670726  0.4135096509685081  0.058831392357166834  1.0000
  O   O5        1.0  0.4657162828847561  0.5947887939449892  0.6697435520048316  1.0000
  O   O6        1.0  0.05688305736114607  0.07998672007860463  0.035704619454833164  1.0000
  O   O7        1.0  0.3447495159686724  0.6804004990395214  0.8752345770834324  1.0000
  O   O8        1.0  0.6580416744930027  0.5494382521520151  0.13522375345906568  1.0000
