data_image0
_chemical_formula_structural       O8
_chemical_formula_sum              "O8"
_cell_length_a       5.369789702272613
_cell_length_b       5.369789702272613
_cell_length_c       4.389828171850124
_cell_angle_alpha    69.24482967881451
_cell_angle_beta     69.24482967881451
_cell_angle_gamma    70.78662063844564

_space_group_name_H-M_alt    "P 1"
_space_group_IT_number       1

loop_
  _space_group_symop_operation_xyz
  'x, y, z'

loop_
  _atom_site_type_symbol
  _atom_site_label
  _atom_site_symmetry_multiplicity
  _atom_site_fract_x
  _atom_site_fract_y
  _atom_site_fract_z
  _atom_site_occupancy
  O   O1        1.0  0.26616215279852184  0.6607323939808571  0.959684141418859  1.0000
  O   O2        1.0  0.6887250256081288  0.7579251794235162  0.9217116870063222  1.0000
  O   O3        1.0  0.27987873379104933  0.881637608840089  0.11423312379820771  1.0000
  O   O4        1.0  0.6400542298231287  0.3689421164023745  0.9327566600880282  1.0000
  O   O5        1.0  0.6824128594526249  0.820144747412785  0.38120840763135533  1.0000
  O   O6        1.0  0.8315131026769595  0.5117463995707681  0.43924319194455164  1.0000
  O   O7        1.0  0.20036818120964783  0.6716007164866985  0.19361288992560333  1.0000
  O   O8        1.0  0.41088577117491454  0.3272709008734722  0.05754953406072616  1.0000
