data_image0
_chemical_formula_structural       O8
_chemical_formula_sum              "O8"
_cell_length_a       5.369789702272613
_cell_length_b       5.369789702272613
_cell_length_c       4.389828171850124
_cell_angle_alpha    69.24482967881451
_cell_angle_beta     69.24482967881451
_cell_angle_gamma    70.78662063844564

_space_group_name_H-M_alt    "P 1"
_space_group_IT_number       1

loop_
  _space_group_symop_operation_xyz
  'x, y, z'

loop_
  _atom_site_type_symbol
  _atom_site_label
  _atom_site_symmetry_multiplicity
  _atom_site_fract_x
  _atom_site_fract_y
  _atom_site_fract_z
  _atom_site_occupancy
  O   O1        1.0  0.9068337529442871  0.2954567161091539  0.030774821869843372  1.0000
  O   O2        1.0  0.055681610698833595  0.9161439486742324  0.33703765316646184  1.0000
  O   O3        1.0  0.019790733423658224  0.508732467896472  0.8990974582863345  1.0000
  O   O4        1.0  0.06788859925127429  0.23661049896869013  0.26065580875670946  1.0000
  O   O5        1.0  0.8892681799901272  0.5969420123069682  0.25614881894009045  1.0000
  O   O6        1.0  0.43575099005808404  0.6896029455693053  0.9090809915963707  1.0000
  O   O7        1.0  0.2546808034781787  0.6916247099756276  0.7662476805824241  1.0000
  O   O8        1.0  0.37010505373160996  0.06488611427152469  0.5409568515959648  1.0000
