data_image0
_chemical_formula_structural       O8
_chemical_formula_sum              "O8"
_cell_length_a       5.369789702272613
_cell_length_b       5.369789702272613
_cell_length_c       4.389828171850124
_cell_angle_alpha    69.24482967881451
_cell_angle_beta     69.24482967881451
_cell_angle_gamma    70.78662063844564

_space_group_name_H-M_alt    "P 1"
_space_group_IT_number       1

loop_
  _space_group_symop_operation_xyz
  'x, y, z'

loop_
  _atom_site_type_symbol
  _atom_site_label
  _atom_site_symmetry_multiplicity
  _atom_site_fract_x
  _atom_site_fract_y
  _atom_site_fract_z
  _atom_site_occupancy
  O   O1        1.0  0.4942038057840197  0.3543685085424464  0.6126020728813697  1.0000
  O   O2        1.0  0.3335606178998489  0.017217497203667165  0.1890016206201608  1.0000
  O   O3        1.0  0.5791668450929848  0.09872447609989621  0.36100177436371794  1.0000
  O   O4        1.0  0.6791868628841389  0.982145361442587  0.05497073934017749  1.0000
  O   O5        1.0  0.13295444633911835  0.646949468740786  0.5555231122072612  1.0000
  O   O6        1.0  0.024156711531619024  0.6641697734655452  0.9961551037417693  1.0000
  O   O7        1.0  0.057499594332767856  0.9742441589672097  0.7746060898095664  1.0000
  O   O8        1.0  0.6992709223227394  0.26218025061109973  0.4561392914715441  1.0000
