data_image0
_chemical_formula_structural       O8
_chemical_formula_sum              "O8"
_cell_length_a       5.369789702272613
_cell_length_b       5.369789702272613
_cell_length_c       4.389828171850124
_cell_angle_alpha    69.24482967881451
_cell_angle_beta     69.24482967881451
_cell_angle_gamma    70.78662063844564

_space_group_name_H-M_alt    "P 1"
_space_group_IT_number       1

loop_
  _space_group_symop_operation_xyz
  'x, y, z'

loop_
  _atom_site_type_symbol
  _atom_site_label
  _atom_site_symmetry_multiplicity
  _atom_site_fract_x
  _atom_site_fract_y
  _atom_site_fract_z
  _atom_site_occupancy
  O   O1        1.0  0.36288398887689866  0.3004870960125601  0.9610431271335784  1.0000
  O   O2        1.0  0.8706220277854158  0.8454576798410827  0.3758919492185413  1.0000
  O   O3        1.0  0.14043801731761318  0.7930219831613385  0.7608173786781052  1.0000
  O   O4        1.0  0.9606967951609136  0.76274868506146  0.1341207853168669  1.0000
  O   O5        1.0  0.8641384241391563  0.025503111339851614  0.9542233638095183  1.0000
  O   O6        1.0  0.9000563991907953  0.4076719069108563  0.9640184712867921  1.0000
  O   O7        1.0  0.4301940685430594  0.935009486417222  0.23416331364150267  1.0000
  O   O8        1.0  0.4709719208048533  0.9301002733409547  0.6157203839124321  1.0000
