data_image0
_chemical_formula_structural       O8
_chemical_formula_sum              "O8"
_cell_length_a       5.369789702272613
_cell_length_b       5.369789702272613
_cell_length_c       4.389828171850124
_cell_angle_alpha    69.24482967881451
_cell_angle_beta     69.24482967881451
_cell_angle_gamma    70.78662063844564

_space_group_name_H-M_alt    "P 1"
_space_group_IT_number       1

loop_
  _space_group_symop_operation_xyz
  'x, y, z'

loop_
  _atom_site_type_symbol
  _atom_site_label
  _atom_site_symmetry_multiplicity
  _atom_site_fract_x
  _atom_site_fract_y
  _atom_site_fract_z
  _atom_site_occupancy
  O   O1        1.0  0.8711054792527779  0.15366637072894918  0.317988085887734  1.0000
  O   O2        1.0  0.0896629236199189  0.8189884029766716  0.34051376879673967  1.0000
  O   O3        1.0  0.1515276586712453  0.3036677139692969  0.0402158681328757  1.0000
  O   O4        1.0  0.0984796867033566  0.8507481519362152  0.22595709464680525  1.0000
  O   O5        1.0  0.47578128516057916  0.30435731110337017  0.25322969358942515  1.0000
  O   O6        1.0  0.15618441319586385  0.5133807195395796  0.7524335451543536  1.0000
  O   O7        1.0  0.5620270777506562  0.12889293340211339  0.5539070477008039  1.0000
  O   O8        1.0  0.5952332643440785  0.9262984137676469  0.5157537093661659  1.0000
