data_image0
_chemical_formula_structural       O8
_chemical_formula_sum              "O8"
_cell_length_a       5.369789702272613
_cell_length_b       5.369789702272613
_cell_length_c       4.389828171850124
_cell_angle_alpha    69.24482967881451
_cell_angle_beta     69.24482967881451
_cell_angle_gamma    70.78662063844564

_space_group_name_H-M_alt    "P 1"
_space_group_IT_number       1

loop_
  _space_group_symop_operation_xyz
  'x, y, z'

loop_
  _atom_site_type_symbol
  _atom_site_label
  _atom_site_symmetry_multiplicity
  _atom_site_fract_x
  _atom_site_fract_y
  _atom_site_fract_z
  _atom_site_occupancy
  O   O1        1.0  0.03361877809185643  0.8741359166630573  0.8215583242750739  1.0000
  O   O2        1.0  0.45955804617489093  0.63052342606521  0.6545250777257579  1.0000
  O   O3        1.0  0.9895354331842476  0.03622905245156005  0.005018293297865739  1.0000
  O   O4        1.0  0.7297647550903861  0.681186145625702  0.1502614704863916  1.0000
  O   O5        1.0  0.9491010998613572  0.6065025812911244  0.7575336677886852  1.0000
  O   O6        1.0  0.8666169724557662  0.29096509491786193  0.14085488452469974  1.0000
  O   O7        1.0  0.005507161398810467  0.7056916435596379  0.26756396091242785  1.0000
  O   O8        1.0  0.9662995809231276  0.17476564408019257  0.20268452644732804  1.0000
