data_image0
_chemical_formula_structural       O8
_chemical_formula_sum              "O8"
_cell_length_a       5.369789702272613
_cell_length_b       5.369789702272613
_cell_length_c       4.389828171850124
_cell_angle_alpha    69.24482967881451
_cell_angle_beta     69.24482967881451
_cell_angle_gamma    70.78662063844564

_space_group_name_H-M_alt    "P 1"
_space_group_IT_number       1

loop_
  _space_group_symop_operation_xyz
  'x, y, z'

loop_
  _atom_site_type_symbol
  _atom_site_label
  _atom_site_symmetry_multiplicity
  _atom_site_fract_x
  _atom_site_fract_y
  _atom_site_fract_z
  _atom_site_occupancy
  O   O1        1.0  0.16628101616382907  0.08981915122579487  0.9133664398840295  1.0000
  O   O2        1.0  0.41746237015463983  0.38377083470904694  0.4585741458183037  1.0000
  O   O3        1.0  0.17636487346973695  0.40677013638052273  0.21891603647699753  1.0000
  O   O4        1.0  0.1735040072594387  0.0359816135409492  0.6180359617796816  1.0000
  O   O5        1.0  0.8136701161879465  0.7659119805925201  0.7929536486868773  1.0000
  O   O6        1.0  0.4315098306378182  0.4967864666514106  0.6399090119807411  1.0000
  O   O7        1.0  0.7521541342314411  0.05259770076972714  0.791164507616581  1.0000
  O   O8        1.0  0.06905495458720168  0.768361427871304  0.5670799367251007  1.0000
