data_image0
_chemical_formula_structural       O8
_chemical_formula_sum              "O8"
_cell_length_a       5.369789702272613
_cell_length_b       5.369789702272613
_cell_length_c       4.389828171850124
_cell_angle_alpha    69.24482967881451
_cell_angle_beta     69.24482967881451
_cell_angle_gamma    70.78662063844564

_space_group_name_H-M_alt    "P 1"
_space_group_IT_number       1

loop_
  _space_group_symop_operation_xyz
  'x, y, z'

loop_
  _atom_site_type_symbol
  _atom_site_label
  _atom_site_symmetry_multiplicity
  _atom_site_fract_x
  _atom_site_fract_y
  _atom_site_fract_z
  _atom_site_occupancy
  O   O1        1.0  0.9587333440230177  0.7510669675799031  0.8263304231740776  1.0000
  O   O2        1.0  0.29920410342505477  0.13179361619947372  0.9285385685701755  1.0000
  O   O3        1.0  0.8246582226453789  0.133170239268793  0.5084023030568545  1.0000
  O   O4        1.0  0.3490849095225208  0.39725160937324944  0.6474815360702308  1.0000
  O   O5        1.0  0.7808638093248845  0.6522015610505356  0.6866039523556751  1.0000
  O   O6        1.0  0.7046608252276627  0.8122444133450166  0.2896711606315341  1.0000
  O   O7        1.0  0.5367128336854314  0.6262408008470857  0.6820550700818373  1.0000
  O   O8        1.0  0.5460818704567494  0.4960300988392292  0.430917047388391  1.0000
