data_image0
_chemical_formula_structural       O8
_chemical_formula_sum              "O8"
_cell_length_a       5.369789702272613
_cell_length_b       5.369789702272613
_cell_length_c       4.389828171850124
_cell_angle_alpha    69.24482967881451
_cell_angle_beta     69.24482967881451
_cell_angle_gamma    70.78662063844564

_space_group_name_H-M_alt    "P 1"
_space_group_IT_number       1

loop_
  _space_group_symop_operation_xyz
  'x, y, z'

loop_
  _atom_site_type_symbol
  _atom_site_label
  _atom_site_symmetry_multiplicity
  _atom_site_fract_x
  _atom_site_fract_y
  _atom_site_fract_z
  _atom_site_occupancy
  O   O1        1.0  0.6734127162033374  0.022090064172516577  0.5151911655997026  1.0000
  O   O2        1.0  0.26396401891172605  0.00667275754084784  0.5496507152285091  1.0000
  O   O3        1.0  0.09782177691050009  0.6530139331043046  0.4708054025248849  1.0000
  O   O4        1.0  0.6272218587459157  0.1610346210951228  0.9210520278441899  1.0000
  O   O5        1.0  0.7617330758634928  0.8408838185111804  0.5103026500784118  1.0000
  O   O6        1.0  0.10421959292934702  0.20571823087493257  0.8024382132473633  1.0000
  O   O7        1.0  0.7110045976232113  0.2852730657995082  0.31034676522674776  1.0000
  O   O8        1.0  0.7606239897294991  0.8253138148288697  0.9202120848709283  1.0000
