data_image0
_chemical_formula_structural       O8
_chemical_formula_sum              "O8"
_cell_length_a       5.369789702272613
_cell_length_b       5.369789702272613
_cell_length_c       4.389828171850124
_cell_angle_alpha    69.24482967881451
_cell_angle_beta     69.24482967881451
_cell_angle_gamma    70.78662063844564

_space_group_name_H-M_alt    "P 1"
_space_group_IT_number       1

loop_
  _space_group_symop_operation_xyz
  'x, y, z'

loop_
  _atom_site_type_symbol
  _atom_site_label
  _atom_site_symmetry_multiplicity
  _atom_site_fract_x
  _atom_site_fract_y
  _atom_site_fract_z
  _atom_site_occupancy
  O   O1        1.0  0.3695302079310796  0.5525153615959475  0.28346712378018424  1.0000
  O   O2        1.0  0.8498772814051492  0.40482654637024496  0.7759763694695891  1.0000
  O   O3        1.0  0.4808174054228509  0.7533676618755507  0.2194482168997638  1.0000
  O   O4        1.0  0.42763075326032407  0.6965091596063173  0.018915053158087503  1.0000
  O   O5        1.0  0.6840385254042474  0.15534174448315596  0.7277320121496729  1.0000
  O   O6        1.0  0.5936842087367964  0.12579472838642758  0.3379210050477326  1.0000
  O   O7        1.0  0.03410194894702556  0.3870477983130627  0.9791595925672425  1.0000
  O   O8        1.0  0.5603215650694375  0.9245971776267048  0.6573794148123397  1.0000
