data_image0
_chemical_formula_structural       O8
_chemical_formula_sum              "O8"
_cell_length_a       5.369789702272613
_cell_length_b       5.369789702272613
_cell_length_c       4.389828171850124
_cell_angle_alpha    69.24482967881451
_cell_angle_beta     69.24482967881451
_cell_angle_gamma    70.78662063844564

_space_group_name_H-M_alt    "P 1"
_space_group_IT_number       1

loop_
  _space_group_symop_operation_xyz
  'x, y, z'

loop_
  _atom_site_type_symbol
  _atom_site_label
  _atom_site_symmetry_multiplicity
  _atom_site_fract_x
  _atom_site_fract_y
  _atom_site_fract_z
  _atom_site_occupancy
  O   O1        1.0  0.9045760875510922  0.8548911765451486  0.6460536585172747  1.0000
  O   O2        1.0  0.8484381939740708  0.16845866815205213  0.8259559143020709  1.0000
  O   O3        1.0  0.1537733073450127  0.9482444478615548  0.18213931936265482  1.0000
  O   O4        1.0  0.49288750049819186  0.6947901609002205  0.5806449211533597  1.0000
  O   O5        1.0  0.9476998049103846  0.8963710495597894  0.31285631695094196  1.0000
  O   O6        1.0  0.4390614655529781  0.9421539399714725  0.3100255702052479  1.0000
  O   O7        1.0  0.5164390988787915  0.2355492496718128  0.3596778106521512  1.0000
  O   O8        1.0  0.6971265104283297  0.25954163718965084  0.782645426942695  1.0000
