data_image0
_chemical_formula_structural       O8
_chemical_formula_sum              "O8"
_cell_length_a       5.369789702272613
_cell_length_b       5.369789702272613
_cell_length_c       4.389828171850124
_cell_angle_alpha    69.24482967881451
_cell_angle_beta     69.24482967881451
_cell_angle_gamma    70.78662063844564

_space_group_name_H-M_alt    "P 1"
_space_group_IT_number       1

loop_
  _space_group_symop_operation_xyz
  'x, y, z'

loop_
  _atom_site_type_symbol
  _atom_site_label
  _atom_site_symmetry_multiplicity
  _atom_site_fract_x
  _atom_site_fract_y
  _atom_site_fract_z
  _atom_site_occupancy
  O   O1        1.0  0.3018508548960783  0.8542473568028193  0.8148252939667593  1.0000
  O   O2        1.0  0.23759365209623917  0.41484142159439585  0.9088079697998381  1.0000
  O   O3        1.0  0.45571033687583196  0.46872247474720297  0.9646530405065512  1.0000
  O   O4        1.0  0.6954651213029663  0.8359914533736266  0.010777463339322502  1.0000
  O   O5        1.0  0.10455226819955499  0.04108465617879986  0.9498134894954575  1.0000
  O   O6        1.0  0.3843326248554195  0.10392991950290309  0.152185865459753  1.0000
  O   O7        1.0  0.9724300399844381  0.8066542755709776  0.9003055549768035  1.0000
  O   O8        1.0  0.8480657247651635  0.4745283934379563  0.29863194617793054  1.0000
