data_image0
_chemical_formula_structural       O8
_chemical_formula_sum              "O8"
_cell_length_a       5.369789702272613
_cell_length_b       5.369789702272613
_cell_length_c       4.389828171850124
_cell_angle_alpha    69.24482967881451
_cell_angle_beta     69.24482967881451
_cell_angle_gamma    70.78662063844564

_space_group_name_H-M_alt    "P 1"
_space_group_IT_number       1

loop_
  _space_group_symop_operation_xyz
  'x, y, z'

loop_
  _atom_site_type_symbol
  _atom_site_label
  _atom_site_symmetry_multiplicity
  _atom_site_fract_x
  _atom_site_fract_y
  _atom_site_fract_z
  _atom_site_occupancy
  O   O1        1.0  0.36550975093047455  0.5626906169565693  0.8823106214253613  1.0000
  O   O2        1.0  0.2430082892778529  0.15010676732664763  0.07461116137469048  1.0000
  O   O3        1.0  0.10365599589486907  0.7548076411485738  0.7996432005447573  1.0000
  O   O4        1.0  0.7979695167508112  0.5553174286760312  0.1626951075642573  1.0000
  O   O5        1.0  0.22917796927235656  0.8843316539835229  0.24946166697189653  1.0000
  O   O6        1.0  0.20118351962775094  0.610702873349954  0.13169044075648628  1.0000
  O   O7        1.0  0.5926771005930291  0.2653488630853289  0.6407241548285043  1.0000
  O   O8        1.0  0.46681949753213203  0.21669435361585698  0.05886240480424476  1.0000
