data_image0
_chemical_formula_structural       O8
_chemical_formula_sum              "O8"
_cell_length_a       5.369789702272613
_cell_length_b       5.369789702272613
_cell_length_c       4.389828171850124
_cell_angle_alpha    69.24482967881451
_cell_angle_beta     69.24482967881451
_cell_angle_gamma    70.78662063844564

_space_group_name_H-M_alt    "P 1"
_space_group_IT_number       1

loop_
  _space_group_symop_operation_xyz
  'x, y, z'

loop_
  _atom_site_type_symbol
  _atom_site_label
  _atom_site_symmetry_multiplicity
  _atom_site_fract_x
  _atom_site_fract_y
  _atom_site_fract_z
  _atom_site_occupancy
  O   O1        1.0  0.439151932871944  0.03845533895229636  0.2332189800100366  1.0000
  O   O2        1.0  0.5697861677924649  0.6114322210404914  0.30741670661888776  1.0000
  O   O3        1.0  0.9246149933434111  0.7972117985382248  0.8433766930889846  1.0000
  O   O4        1.0  0.2170003994422558  0.07238335668487395  0.7692649963945044  1.0000
  O   O5        1.0  0.12502639049536057  0.19437029687151153  0.7511080625722713  1.0000
  O   O6        1.0  0.7644852505458033  0.862182134043568  0.5747677356337277  1.0000
  O   O7        1.0  0.45882751099892083  0.9552683692169142  0.4380146673192442  1.0000
  O   O8        1.0  0.5011090764465393  0.468695877548841  0.08283294947980835  1.0000
