data_image0
_chemical_formula_structural       O8
_chemical_formula_sum              "O8"
_cell_length_a       5.369789702272613
_cell_length_b       5.369789702272613
_cell_length_c       4.389828171850124
_cell_angle_alpha    69.24482967881451
_cell_angle_beta     69.24482967881451
_cell_angle_gamma    70.78662063844564

_space_group_name_H-M_alt    "P 1"
_space_group_IT_number       1

loop_
  _space_group_symop_operation_xyz
  'x, y, z'

loop_
  _atom_site_type_symbol
  _atom_site_label
  _atom_site_symmetry_multiplicity
  _atom_site_fract_x
  _atom_site_fract_y
  _atom_site_fract_z
  _atom_site_occupancy
  O   O1        1.0  0.6157288181567964  0.3354174042532492  0.9353019272905385  1.0000
  O   O2        1.0  0.6369374142405668  0.4188319273789247  0.4005016804344592  1.0000
  O   O3        1.0  0.5950725114212148  0.20898282829643477  0.7834429049885401  1.0000
  O   O4        1.0  0.8678971185127082  0.7903248299535814  0.0038405911698724537  1.0000
  O   O5        1.0  0.5798433600925232  0.7547406903280915  4.549600433279011e-05  1.0000
  O   O6        1.0  0.4518984580799241  0.15862902242577803  0.8078422381141763  1.0000
  O   O7        1.0  0.5600910267046935  0.2115929671274639  0.1753624882684246  1.0000
  O   O8        1.0  0.6925335481328219  0.12148027289026797  0.8936621155945339  1.0000
