data_image0
_chemical_formula_structural       O8
_chemical_formula_sum              "O8"
_cell_length_a       5.369789702272613
_cell_length_b       5.369789702272613
_cell_length_c       4.389828171850124
_cell_angle_alpha    69.24482967881451
_cell_angle_beta     69.24482967881451
_cell_angle_gamma    70.78662063844564

_space_group_name_H-M_alt    "P 1"
_space_group_IT_number       1

loop_
  _space_group_symop_operation_xyz
  'x, y, z'

loop_
  _atom_site_type_symbol
  _atom_site_label
  _atom_site_symmetry_multiplicity
  _atom_site_fract_x
  _atom_site_fract_y
  _atom_site_fract_z
  _atom_site_occupancy
  O   O1        1.0  0.4057894608994914  0.9691648215214457  0.6347391707798664  1.0000
  O   O2        1.0  0.2903613492794719  0.281099288287745  0.6050926597816613  1.0000
  O   O3        1.0  0.03423553403370505  0.9700515241952132  0.5171938284252562  1.0000
  O   O4        1.0  0.39098536420273433  0.8900658849864094  0.8080134856579804  1.0000
  O   O5        1.0  0.8993304983883963  0.28429631665022725  0.7034430246780303  1.0000
  O   O6        1.0  0.9961901920139979  0.42312732425370925  0.6775956003794619  1.0000
  O   O7        1.0  0.6548966247232926  0.19577833670436462  0.7033648540927384  1.0000
  O   O8        1.0  0.3282132203009347  0.9864164377744881  0.35055684914634  1.0000
