data_image0
_chemical_formula_structural       O8
_chemical_formula_sum              "O8"
_cell_length_a       5.369789702272613
_cell_length_b       5.369789702272613
_cell_length_c       4.389828171850124
_cell_angle_alpha    69.24482967881451
_cell_angle_beta     69.24482967881451
_cell_angle_gamma    70.78662063844564

_space_group_name_H-M_alt    "P 1"
_space_group_IT_number       1

loop_
  _space_group_symop_operation_xyz
  'x, y, z'

loop_
  _atom_site_type_symbol
  _atom_site_label
  _atom_site_symmetry_multiplicity
  _atom_site_fract_x
  _atom_site_fract_y
  _atom_site_fract_z
  _atom_site_occupancy
  O   O1        1.0  0.8348229110209511  0.9233829620591649  0.15644000524658708  1.0000
  O   O2        1.0  0.28547493667183943  0.04846943874054688  0.521331746619154  1.0000
  O   O3        1.0  0.24156253916584802  0.38564969238614566  0.3901950060707833  1.0000
  O   O4        1.0  0.07413149903188554  0.18051753166820728  0.7426353410613302  1.0000
  O   O5        1.0  0.44596735183664293  0.4802722725001054  0.38838937377704497  1.0000
  O   O6        1.0  0.3822184462434848  0.19835941148985015  0.5587391391722747  1.0000
  O   O7        1.0  0.7477812074778072  0.9028618048962045  0.6416066380037506  1.0000
  O   O8        1.0  0.9880429580034598  0.8804869393758494  0.6006613754914341  1.0000
