data_image0
_chemical_formula_structural       O8
_chemical_formula_sum              "O8"
_cell_length_a       5.369789702272613
_cell_length_b       5.369789702272613
_cell_length_c       4.389828171850124
_cell_angle_alpha    69.24482967881451
_cell_angle_beta     69.24482967881451
_cell_angle_gamma    70.78662063844564

_space_group_name_H-M_alt    "P 1"
_space_group_IT_number       1

loop_
  _space_group_symop_operation_xyz
  'x, y, z'

loop_
  _atom_site_type_symbol
  _atom_site_label
  _atom_site_symmetry_multiplicity
  _atom_site_fract_x
  _atom_site_fract_y
  _atom_site_fract_z
  _atom_site_occupancy
  O   O1        1.0  0.520761765190273  0.13127920823484018  0.5675770503252195  1.0000
  O   O2        1.0  0.8315148303857427  0.1391873656728677  0.11381723018383383  1.0000
  O   O3        1.0  0.8451012922657952  0.582426316638589  0.669527078223453  1.0000
  O   O4        1.0  0.9043856702725783  0.9081844832385855  0.8447126891347274  1.0000
  O   O5        1.0  0.4120292938514396  0.5891867966641477  0.9426792653711331  1.0000
  O   O6        1.0  0.9797274458680967  0.23794038380135163  0.6563890652302032  1.0000
  O   O7        1.0  0.7641693359830128  0.6916659421354439  0.6094272044247546  1.0000
  O   O8        1.0  0.7423114342603085  0.7201289354898996  0.5958701842834628  1.0000
