data_image0
_chemical_formula_structural       O8
_chemical_formula_sum              "O8"
_cell_length_a       5.369789702272613
_cell_length_b       5.369789702272613
_cell_length_c       4.389828171850124
_cell_angle_alpha    69.24482967881451
_cell_angle_beta     69.24482967881451
_cell_angle_gamma    70.78662063844564

_space_group_name_H-M_alt    "P 1"
_space_group_IT_number       1

loop_
  _space_group_symop_operation_xyz
  'x, y, z'

loop_
  _atom_site_type_symbol
  _atom_site_label
  _atom_site_symmetry_multiplicity
  _atom_site_fract_x
  _atom_site_fract_y
  _atom_site_fract_z
  _atom_site_occupancy
  O   O1        1.0  0.973679837966337  0.6052344619148293  0.5738458835386098  1.0000
  O   O2        1.0  0.4315261434272628  0.6531452102592183  0.8195097993529714  1.0000
  O   O3        1.0  0.5282862129396868  0.10021470754363548  0.30242513798995674  1.0000
  O   O4        1.0  0.5829732182904621  0.5805393890261485  0.27321939649280047  1.0000
  O   O5        1.0  0.7539284115335505  0.6537815403825995  0.4902425997179449  1.0000
  O   O6        1.0  0.4445871269730737  0.45182576165433375  0.3817452540777495  1.0000
  O   O7        1.0  0.7240706160259265  0.1134721752182628  0.3967200504042836  1.0000
  O   O8        1.0  0.5609504167573305  0.8417870372783973  0.7622904130998549  1.0000
