data_image0
_chemical_formula_structural       O8
_chemical_formula_sum              "O8"
_cell_length_a       5.369789702272613
_cell_length_b       5.369789702272613
_cell_length_c       4.389828171850124
_cell_angle_alpha    69.24482967881451
_cell_angle_beta     69.24482967881451
_cell_angle_gamma    70.78662063844564

_space_group_name_H-M_alt    "P 1"
_space_group_IT_number       1

loop_
  _space_group_symop_operation_xyz
  'x, y, z'

loop_
  _atom_site_type_symbol
  _atom_site_label
  _atom_site_symmetry_multiplicity
  _atom_site_fract_x
  _atom_site_fract_y
  _atom_site_fract_z
  _atom_site_occupancy
  O   O1        1.0  0.4205109823048545  0.025947811551880307  0.18267038284301407  1.0000
  O   O2        1.0  0.14161267618118956  0.5990159576362597  0.35455476953493203  1.0000
  O   O3        1.0  0.7058651447092785  0.2637753581477078  0.5615408474104555  1.0000
  O   O4        1.0  0.8383544131050797  0.9032510269855756  0.49190573488654366  1.0000
  O   O5        1.0  0.7910036257342874  0.2526609595752092  0.8254474731613612  1.0000
  O   O6        1.0  0.5641936886057763  0.6179549096675503  0.11945575994288049  1.0000
  O   O7        1.0  0.5084955805587263  0.9519393618740164  0.9092020809662387  1.0000
  O   O8        1.0  0.0299654717022122  0.3854536933543571  0.5552241412681411  1.0000
