data_image0
_chemical_formula_structural       O8
_chemical_formula_sum              "O8"
_cell_length_a       5.369789702272613
_cell_length_b       5.369789702272613
_cell_length_c       4.389828171850124
_cell_angle_alpha    69.24482967881451
_cell_angle_beta     69.24482967881451
_cell_angle_gamma    70.78662063844564

_space_group_name_H-M_alt    "P 1"
_space_group_IT_number       1

loop_
  _space_group_symop_operation_xyz
  'x, y, z'

loop_
  _atom_site_type_symbol
  _atom_site_label
  _atom_site_symmetry_multiplicity
  _atom_site_fract_x
  _atom_site_fract_y
  _atom_site_fract_z
  _atom_site_occupancy
  O   O1        1.0  0.7244357924391309  0.17603310034550645  0.7049429484230814  1.0000
  O   O2        1.0  0.9762095766650702  0.37638584394784047  0.9038774221397823  1.0000
  O   O3        1.0  0.3196778878633424  0.9600290331316295  0.04994153850232408  1.0000
  O   O4        1.0  0.35378698831169686  0.3004996506989954  0.5761379106186908  1.0000
  O   O5        1.0  0.20443853418804991  0.056124851833899925  0.837537204713172  1.0000
  O   O6        1.0  0.5772780300042939  0.7828959036894299  0.12942199696647094  1.0000
  O   O7        1.0  0.7631150108957812  0.481802775357453  0.8220076278946991  1.0000
  O   O8        1.0  0.08105972190760014  0.8662280161093783  0.9761345541703719  1.0000
