data_image0
_chemical_formula_structural       O8
_chemical_formula_sum              "O8"
_cell_length_a       5.369789702272613
_cell_length_b       5.369789702272613
_cell_length_c       4.389828171850124
_cell_angle_alpha    69.24482967881451
_cell_angle_beta     69.24482967881451
_cell_angle_gamma    70.78662063844564

_space_group_name_H-M_alt    "P 1"
_space_group_IT_number       1

loop_
  _space_group_symop_operation_xyz
  'x, y, z'

loop_
  _atom_site_type_symbol
  _atom_site_label
  _atom_site_symmetry_multiplicity
  _atom_site_fract_x
  _atom_site_fract_y
  _atom_site_fract_z
  _atom_site_occupancy
  O   O1        1.0  0.8357056936984009  0.1143907651114553  0.9546968057770187  1.0000
  O   O2        1.0  0.9446774396120583  0.515113075261258  0.008845209012410038  1.0000
  O   O3        1.0  0.770796910186526  0.35495181965340805  0.13434277581327336  1.0000
  O   O4        1.0  0.0007300465910553555  0.26740367144451405  0.9133716972819741  1.0000
  O   O5        1.0  0.026298900227608613  0.9679147019726457  0.3821945832578706  1.0000
  O   O6        1.0  0.47959757417364557  0.6925300454314538  0.648640830765217  1.0000
  O   O7        1.0  0.2223377022653974  0.371337722129784  0.9163573371573284  1.0000
  O   O8        1.0  0.7198574913769846  0.7163583771261033  0.041549823560735555  1.0000
