data_image0
_chemical_formula_structural       O8
_chemical_formula_sum              "O8"
_cell_length_a       5.369789702272613
_cell_length_b       5.369789702272613
_cell_length_c       4.389828171850124
_cell_angle_alpha    69.24482967881451
_cell_angle_beta     69.24482967881451
_cell_angle_gamma    70.78662063844564

_space_group_name_H-M_alt    "P 1"
_space_group_IT_number       1

loop_
  _space_group_symop_operation_xyz
  'x, y, z'

loop_
  _atom_site_type_symbol
  _atom_site_label
  _atom_site_symmetry_multiplicity
  _atom_site_fract_x
  _atom_site_fract_y
  _atom_site_fract_z
  _atom_site_occupancy
  O   O1        1.0  0.7756115392861833  0.31967944034923335  0.3515790034928301  1.0000
  O   O2        1.0  0.8983128973798831  0.01246822980428064  0.7712762886985587  1.0000
  O   O3        1.0  0.1281938531572635  0.11831737118308183  0.2674066790071379  1.0000
  O   O4        1.0  0.2807822676131053  0.8549393832742522  0.3845174493967445  1.0000
  O   O5        1.0  0.6428356108066176  0.39075918297008627  0.6515975848507907  1.0000
  O   O6        1.0  0.43861540440703806  0.00044168498662600086  0.4156888392540665  1.0000
  O   O7        1.0  0.18268647492197232  0.08008951592315938  0.5200741411797405  1.0000
  O   O8        1.0  0.6529640396703122  0.22330507938963073  0.6378588772783296  1.0000
