data_image0
_chemical_formula_structural       O8
_chemical_formula_sum              "O8"
_cell_length_a       5.369789702272613
_cell_length_b       5.369789702272613
_cell_length_c       4.389828171850124
_cell_angle_alpha    69.24482967881451
_cell_angle_beta     69.24482967881451
_cell_angle_gamma    70.78662063844564

_space_group_name_H-M_alt    "P 1"
_space_group_IT_number       1

loop_
  _space_group_symop_operation_xyz
  'x, y, z'

loop_
  _atom_site_type_symbol
  _atom_site_label
  _atom_site_symmetry_multiplicity
  _atom_site_fract_x
  _atom_site_fract_y
  _atom_site_fract_z
  _atom_site_occupancy
  O   O1        1.0  0.031319846309813215  0.7485019963843449  0.7477351951383682  1.0000
  O   O2        1.0  0.27931527417055335  0.7811355135660065  0.5091129699430326  1.0000
  O   O3        1.0  0.2925923909710164  0.7233401359875842  0.5550283429381118  1.0000
  O   O4        1.0  0.6251229616479108  0.01912725077617239  0.9517835876093916  1.0000
  O   O5        1.0  0.7199229053492076  0.12878869540150362  0.3715913380122835  1.0000
  O   O6        1.0  0.5490790946154362  0.618307367830468  0.03348479183564024  1.0000
  O   O7        1.0  0.36151512595163915  0.7492806746048828  0.5220832427284825  1.0000
  O   O8        1.0  0.14113393726343304  0.23151864549887868  0.3091796179949071  1.0000
