data_image0
_chemical_formula_structural       O8
_chemical_formula_sum              "O8"
_cell_length_a       5.369789702272613
_cell_length_b       5.369789702272613
_cell_length_c       4.389828171850124
_cell_angle_alpha    69.24482967881451
_cell_angle_beta     69.24482967881451
_cell_angle_gamma    70.78662063844564

_space_group_name_H-M_alt    "P 1"
_space_group_IT_number       1

loop_
  _space_group_symop_operation_xyz
  'x, y, z'

loop_
  _atom_site_type_symbol
  _atom_site_label
  _atom_site_symmetry_multiplicity
  _atom_site_fract_x
  _atom_site_fract_y
  _atom_site_fract_z
  _atom_site_occupancy
  O   O1        1.0  0.87701274741889  0.6053343058360969  0.41403344145546583  1.0000
  O   O2        1.0  0.026141868837956217  0.5619273757004493  0.5002264179780767  1.0000
  O   O3        1.0  0.8792104162432182  0.12245390486967267  0.20818166932700066  1.0000
  O   O4        1.0  0.04926363514188736  0.4396287246845767  0.13185957253946246  1.0000
  O   O5        1.0  0.9490608950055908  0.30256244414941946  0.22868817910266426  1.0000
  O   O6        1.0  0.3501594415379756  0.1513290479545475  0.7661206836101684  1.0000
  O   O7        1.0  0.20993429540235908  0.8478416338067518  0.24280329299201853  1.0000
  O   O8        1.0  0.6592172114333614  0.9689224949219724  0.5080876671343475  1.0000
