data_image0
_chemical_formula_structural       O8
_chemical_formula_sum              "O8"
_cell_length_a       5.369789702272613
_cell_length_b       5.369789702272613
_cell_length_c       4.389828171850124
_cell_angle_alpha    69.24482967881451
_cell_angle_beta     69.24482967881451
_cell_angle_gamma    70.78662063844564

_space_group_name_H-M_alt    "P 1"
_space_group_IT_number       1

loop_
  _space_group_symop_operation_xyz
  'x, y, z'

loop_
  _atom_site_type_symbol
  _atom_site_label
  _atom_site_symmetry_multiplicity
  _atom_site_fract_x
  _atom_site_fract_y
  _atom_site_fract_z
  _atom_site_occupancy
  O   O1        1.0  0.0415026017937663  0.24604130897015075  0.16870026846528674  1.0000
  O   O2        1.0  0.34153685755413576  0.46706746553725154  0.2962145316628373  1.0000
  O   O3        1.0  0.4285993770212144  0.8738991159476583  0.4751176448483433  1.0000
  O   O4        1.0  0.6680815861887694  0.41452722483227866  0.929875291338047  1.0000
  O   O5        1.0  0.7708085289152251  0.07308059742846496  0.5054127522950296  1.0000
  O   O6        1.0  0.3492019909924835  0.12441667541207657  0.045936864915745446  1.0000
  O   O7        1.0  0.4775695081755309  0.7846619004060997  0.25493175020786474  1.0000
  O   O8        1.0  0.9227011367674116  0.016305454640469286  0.3238100161437707  1.0000
