data_image0
_chemical_formula_structural       O8
_chemical_formula_sum              "O8"
_cell_length_a       5.369789702272613
_cell_length_b       5.369789702272613
_cell_length_c       4.389828171850124
_cell_angle_alpha    69.24482967881451
_cell_angle_beta     69.24482967881451
_cell_angle_gamma    70.78662063844564

_space_group_name_H-M_alt    "P 1"
_space_group_IT_number       1

loop_
  _space_group_symop_operation_xyz
  'x, y, z'

loop_
  _atom_site_type_symbol
  _atom_site_label
  _atom_site_symmetry_multiplicity
  _atom_site_fract_x
  _atom_site_fract_y
  _atom_site_fract_z
  _atom_site_occupancy
  O   O1        1.0  0.5752338687197991  0.21683374946233425  0.9773341928514725  1.0000
  O   O2        1.0  0.6079700775604735  0.518085869932392  0.8729800776445771  1.0000
  O   O3        1.0  0.9433434081378422  0.7428339431698205  0.46085691454363875  1.0000
  O   O4        1.0  0.8452747903595146  0.6757849617833935  0.6515717395933436  1.0000
  O   O5        1.0  0.530346639949947  0.0015644501404299405  0.6533132445595271  1.0000
  O   O6        1.0  0.4634648286353915  0.39312389222619615  0.7204177067107125  1.0000
  O   O7        1.0  0.5205843618644721  0.6150396422301689  0.37735375876354027  1.0000
  O   O8        1.0  0.5137810084787482  0.8367329946771971  0.2861723129586693  1.0000
