data_image0
_chemical_formula_structural       O8
_chemical_formula_sum              "O8"
_cell_length_a       5.369789702272613
_cell_length_b       5.369789702272613
_cell_length_c       4.389828171850124
_cell_angle_alpha    69.24482967881451
_cell_angle_beta     69.24482967881451
_cell_angle_gamma    70.78662063844564

_space_group_name_H-M_alt    "P 1"
_space_group_IT_number       1

loop_
  _space_group_symop_operation_xyz
  'x, y, z'

loop_
  _atom_site_type_symbol
  _atom_site_label
  _atom_site_symmetry_multiplicity
  _atom_site_fract_x
  _atom_site_fract_y
  _atom_site_fract_z
  _atom_site_occupancy
  O   O1        1.0  0.26118438049118  0.11540971064262351  0.3525208307002856  1.0000
  O   O2        1.0  0.7372291916709024  0.430315192522265  0.9554283838677406  1.0000
  O   O3        1.0  0.3913714538838349  0.07849281329776048  0.13454473841317593  1.0000
  O   O4        1.0  0.10081236146287864  0.6830834196440883  0.744456335362564  1.0000
  O   O5        1.0  0.42647458424706564  0.8486807333574546  0.9601711970713751  1.0000
  O   O6        1.0  0.8884903054971431  0.07783084068575974  0.7668536766563783  1.0000
  O   O7        1.0  0.7444671796089892  0.44643987523188255  0.2161177848539051  1.0000
  O   O8        1.0  0.44997271235872205  0.319747136445355  0.8699067158397007  1.0000
