data_image0
_chemical_formula_structural       O8
_chemical_formula_sum              "O8"
_cell_length_a       5.369789702272613
_cell_length_b       5.369789702272613
_cell_length_c       4.389828171850124
_cell_angle_alpha    69.24482967881451
_cell_angle_beta     69.24482967881451
_cell_angle_gamma    70.78662063844564

_space_group_name_H-M_alt    "P 1"
_space_group_IT_number       1

loop_
  _space_group_symop_operation_xyz
  'x, y, z'

loop_
  _atom_site_type_symbol
  _atom_site_label
  _atom_site_symmetry_multiplicity
  _atom_site_fract_x
  _atom_site_fract_y
  _atom_site_fract_z
  _atom_site_occupancy
  O   O1        1.0  0.4119920180874388  0.44053843633567524  0.5606294978301065  1.0000
  O   O2        1.0  0.5690714512923076  0.9384854736722907  0.4211138956230087  1.0000
  O   O3        1.0  0.9524933626735006  0.6404105986586295  0.9950946602023265  1.0000
  O   O4        1.0  0.27729979728646015  0.873719814475244  0.8236621859056399  1.0000
  O   O5        1.0  0.188667003014654  0.5080079861598819  0.3572657325892763  1.0000
  O   O6        1.0  0.5273478895465118  0.8910776034264708  0.7101743219832102  1.0000
  O   O7        1.0  0.17650629790550454  0.7420337282745288  0.233635497607807  1.0000
  O   O8        1.0  0.8966237965316424  0.965725633678927  0.898425267111385  1.0000
