data_image0
_chemical_formula_structural       O8
_chemical_formula_sum              "O8"
_cell_length_a       5.369789702272613
_cell_length_b       5.369789702272613
_cell_length_c       4.389828171850124
_cell_angle_alpha    69.24482967881451
_cell_angle_beta     69.24482967881451
_cell_angle_gamma    70.78662063844564

_space_group_name_H-M_alt    "P 1"
_space_group_IT_number       1

loop_
  _space_group_symop_operation_xyz
  'x, y, z'

loop_
  _atom_site_type_symbol
  _atom_site_label
  _atom_site_symmetry_multiplicity
  _atom_site_fract_x
  _atom_site_fract_y
  _atom_site_fract_z
  _atom_site_occupancy
  O   O1        1.0  0.842507157148745  0.29666483443324765  0.8923495236270185  1.0000
  O   O2        1.0  0.007000921212019229  0.041740371835018664  0.31423441029624044  1.0000
  O   O3        1.0  0.696322041860796  0.2751199695101967  0.09912775131637375  1.0000
  O   O4        1.0  0.6327264049684089  0.4847393898185288  0.37000907002457595  1.0000
  O   O5        1.0  0.4007699568263785  0.050498781770642154  0.9253132978199545  1.0000
  O   O6        1.0  0.06577462208374385  0.10424947008709129  0.7420511843969919  1.0000
  O   O7        1.0  0.5449811375363858  0.31797769687444655  0.8503222607052336  1.0000
  O   O8        1.0  0.809919364098576  0.42900880586966306  0.80659356912372  1.0000
