data_image0
_chemical_formula_structural       O8
_chemical_formula_sum              "O8"
_cell_length_a       5.369789702272613
_cell_length_b       5.369789702272613
_cell_length_c       4.389828171850124
_cell_angle_alpha    69.24482967881451
_cell_angle_beta     69.24482967881451
_cell_angle_gamma    70.78662063844564

_space_group_name_H-M_alt    "P 1"
_space_group_IT_number       1

loop_
  _space_group_symop_operation_xyz
  'x, y, z'

loop_
  _atom_site_type_symbol
  _atom_site_label
  _atom_site_symmetry_multiplicity
  _atom_site_fract_x
  _atom_site_fract_y
  _atom_site_fract_z
  _atom_site_occupancy
  O   O1        1.0  0.9484093612994409  0.39821971135888123  0.8864812918428235  1.0000
  O   O2        1.0  0.5931104679905701  0.9234959128833609  0.1735336743021989  1.0000
  O   O3        1.0  0.14933692080252925  0.15594953476201567  0.5489073874685992  1.0000
  O   O4        1.0  0.6192967115898855  0.8596239634240677  0.4052515469007787  1.0000
  O   O5        1.0  0.0025749182277152727  0.9341434785385196  0.1856458165293482  1.0000
  O   O6        1.0  0.8995594850620154  0.889406168772247  0.07996469075105057  1.0000
  O   O7        1.0  0.062326794215227466  0.03419957891358649  0.646115880163677  1.0000
  O   O8        1.0  0.7253847722417284  0.8049610550941004  0.07409998571524312  1.0000
