data_image0
_chemical_formula_structural       O8
_chemical_formula_sum              "O8"
_cell_length_a       5.369789702272613
_cell_length_b       5.369789702272613
_cell_length_c       4.389828171850124
_cell_angle_alpha    69.24482967881451
_cell_angle_beta     69.24482967881451
_cell_angle_gamma    70.78662063844564

_space_group_name_H-M_alt    "P 1"
_space_group_IT_number       1

loop_
  _space_group_symop_operation_xyz
  'x, y, z'

loop_
  _atom_site_type_symbol
  _atom_site_label
  _atom_site_symmetry_multiplicity
  _atom_site_fract_x
  _atom_site_fract_y
  _atom_site_fract_z
  _atom_site_occupancy
  O   O1        1.0  0.9307631248449413  0.3223929916364101  0.029264835183866467  1.0000
  O   O2        1.0  0.438575259895579  0.9311799679023309  0.3698472044295755  1.0000
  O   O3        1.0  0.6053507130266382  0.4370131075964103  0.4496041968670781  1.0000
  O   O4        1.0  0.9583582842724123  0.7659177939069962  0.23654561647433248  1.0000
  O   O5        1.0  0.8222524003975948  0.5430576241607454  0.7603736496350337  1.0000
  O   O6        1.0  0.4910362440621032  0.3100632696300192  0.14681026507859585  1.0000
  O   O7        1.0  0.6692601829124456  0.0392313181613666  0.9961307501348866  1.0000
  O   O8        1.0  0.08440449870965949  0.6511439563647712  0.011423568060819456  1.0000
