data_image0
_chemical_formula_structural       O8
_chemical_formula_sum              "O8"
_cell_length_a       5.369789702272613
_cell_length_b       5.369789702272613
_cell_length_c       4.389828171850124
_cell_angle_alpha    69.24482967881451
_cell_angle_beta     69.24482967881451
_cell_angle_gamma    70.78662063844564

_space_group_name_H-M_alt    "P 1"
_space_group_IT_number       1

loop_
  _space_group_symop_operation_xyz
  'x, y, z'

loop_
  _atom_site_type_symbol
  _atom_site_label
  _atom_site_symmetry_multiplicity
  _atom_site_fract_x
  _atom_site_fract_y
  _atom_site_fract_z
  _atom_site_occupancy
  O   O1        1.0  0.4825164570299405  0.7220956167471213  0.43626371764858973  1.0000
  O   O2        1.0  0.008895092219674439  0.7693264550214494  0.1429854563880255  1.0000
  O   O3        1.0  0.23659099329282895  0.4071210243879193  0.1801653420573004  1.0000
  O   O4        1.0  0.09361176953840644  0.5096413652016265  0.26325585016637376  1.0000
  O   O5        1.0  0.6713167552862203  0.9763625335838135  0.45695688967808934  1.0000
  O   O6        1.0  0.044265067198711705  0.7631867101407792  0.9203611824945557  1.0000
  O   O7        1.0  0.8543713726280622  0.6549262330402357  0.2159694618662087  1.0000
  O   O8        1.0  0.6084317027065325  0.19733976353200067  0.38404219533212114  1.0000
