data_image0
_chemical_formula_structural       O8
_chemical_formula_sum              "O8"
_cell_length_a       5.369789702272613
_cell_length_b       5.369789702272613
_cell_length_c       4.389828171850124
_cell_angle_alpha    69.24482967881451
_cell_angle_beta     69.24482967881451
_cell_angle_gamma    70.78662063844564

_space_group_name_H-M_alt    "P 1"
_space_group_IT_number       1

loop_
  _space_group_symop_operation_xyz
  'x, y, z'

loop_
  _atom_site_type_symbol
  _atom_site_label
  _atom_site_symmetry_multiplicity
  _atom_site_fract_x
  _atom_site_fract_y
  _atom_site_fract_z
  _atom_site_occupancy
  O   O1        1.0  0.4181182159409609  0.7993239340153728  0.9385487788565001  1.0000
  O   O2        1.0  0.09419984893030353  0.6042805048504585  0.5482425967811722  1.0000
  O   O3        1.0  0.7362879684475416  0.09538572004602486  0.6310426762543742  1.0000
  O   O4        1.0  0.15733778675118515  0.9534274991313474  0.11601431537229523  1.0000
  O   O5        1.0  0.9100969088849897  0.7412661591637288  0.41657960586836396  1.0000
  O   O6        1.0  0.8462627274592833  0.34959958240612465  0.0919551137738921  1.0000
  O   O7        1.0  0.05608151763170355  0.8379170597687988  0.25801607766304  1.0000
  O   O8        1.0  0.7816170678947962  0.6187995672568705  0.9995998100253018  1.0000
