data_image0
_chemical_formula_structural       O8
_chemical_formula_sum              "O8"
_cell_length_a       5.369789702272613
_cell_length_b       5.369789702272613
_cell_length_c       4.389828171850124
_cell_angle_alpha    69.24482967881451
_cell_angle_beta     69.24482967881451
_cell_angle_gamma    70.78662063844564

_space_group_name_H-M_alt    "P 1"
_space_group_IT_number       1

loop_
  _space_group_symop_operation_xyz
  'x, y, z'

loop_
  _atom_site_type_symbol
  _atom_site_label
  _atom_site_symmetry_multiplicity
  _atom_site_fract_x
  _atom_site_fract_y
  _atom_site_fract_z
  _atom_site_occupancy
  O   O1        1.0  0.5651951329875118  0.6671439767665959  0.6014096835825171  1.0000
  O   O2        1.0  0.8347222937434875  0.648718697864636  0.25206642815863844  1.0000
  O   O3        1.0  0.1263860865976838  0.22729585292002952  0.12530210303725653  1.0000
  O   O4        1.0  0.8790837042009443  0.6671346385999364  0.9992263034493298  1.0000
  O   O5        1.0  0.0345324243173053  0.9647295033130519  0.43977703696754844  1.0000
  O   O6        1.0  0.8638038225209144  0.47691064083449675  0.918637474111712  1.0000
  O   O7        1.0  0.7767924796062893  0.7127019085766593  0.4011187611295668  1.0000
  O   O8        1.0  0.919485654645591  0.6353638801928279  0.2624633844711326  1.0000
