data_image0
_chemical_formula_structural       O8
_chemical_formula_sum              "O8"
_cell_length_a       5.369789702272613
_cell_length_b       5.369789702272613
_cell_length_c       4.389828171850124
_cell_angle_alpha    69.24482967881451
_cell_angle_beta     69.24482967881451
_cell_angle_gamma    70.78662063844564

_space_group_name_H-M_alt    "P 1"
_space_group_IT_number       1

loop_
  _space_group_symop_operation_xyz
  'x, y, z'

loop_
  _atom_site_type_symbol
  _atom_site_label
  _atom_site_symmetry_multiplicity
  _atom_site_fract_x
  _atom_site_fract_y
  _atom_site_fract_z
  _atom_site_occupancy
  O   O1        1.0  0.8723528349773328  0.6040790245592973  0.8192195642200204  1.0000
  O   O2        1.0  0.5026981695724473  0.1923634130119325  0.6757481403250765  1.0000
  O   O3        1.0  0.05214613292261827  0.9033197000697513  0.5347976898231224  1.0000
  O   O4        1.0  0.10594025425643849  0.42080956600781994  0.6596753784510625  1.0000
  O   O5        1.0  0.9428308045324698  0.37247879022709185  0.37195794661579384  1.0000
  O   O6        1.0  0.9809863820204399  0.6712057431635898  0.6569487958299192  1.0000
  O   O7        1.0  0.04864690117259585  0.8106080051073619  0.8979600746217926  1.0000
  O   O8        1.0  0.4944002287274927  0.025136072301865653  0.38369152658021477  1.0000
