data_image0
_chemical_formula_structural       O8
_chemical_formula_sum              "O8"
_cell_length_a       5.369789702272613
_cell_length_b       5.369789702272613
_cell_length_c       4.389828171850124
_cell_angle_alpha    69.24482967881451
_cell_angle_beta     69.24482967881451
_cell_angle_gamma    70.78662063844564

_space_group_name_H-M_alt    "P 1"
_space_group_IT_number       1

loop_
  _space_group_symop_operation_xyz
  'x, y, z'

loop_
  _atom_site_type_symbol
  _atom_site_label
  _atom_site_symmetry_multiplicity
  _atom_site_fract_x
  _atom_site_fract_y
  _atom_site_fract_z
  _atom_site_occupancy
  O   O1        1.0  0.13441155208755204  0.4575527014434133  0.39536246377669926  1.0000
  O   O2        1.0  0.6342649146314585  0.9661364412619662  0.1874165465602502  1.0000
  O   O3        1.0  0.7844177022487635  0.5753734531382619  0.6418704527726078  1.0000
  O   O4        1.0  0.6230466236021321  0.9527128421536535  0.4209812235629542  1.0000
  O   O5        1.0  0.7302283585817406  0.7884685848971671  0.9001759833337815  1.0000
  O   O6        1.0  0.9326595406165268  0.20201593451379551  0.8872901276959304  1.0000
  O   O7        1.0  0.31460082608955275  0.004024618963519799  0.5433306903370863  1.0000
  O   O8        1.0  0.84637178347743  0.05371492162944058  0.02357254151868915  1.0000
