data_image0
_chemical_formula_structural       O8
_chemical_formula_sum              "O8"
_cell_length_a       5.369789702272613
_cell_length_b       5.369789702272613
_cell_length_c       4.389828171850124
_cell_angle_alpha    69.24482967881451
_cell_angle_beta     69.24482967881451
_cell_angle_gamma    70.78662063844564

_space_group_name_H-M_alt    "P 1"
_space_group_IT_number       1

loop_
  _space_group_symop_operation_xyz
  'x, y, z'

loop_
  _atom_site_type_symbol
  _atom_site_label
  _atom_site_symmetry_multiplicity
  _atom_site_fract_x
  _atom_site_fract_y
  _atom_site_fract_z
  _atom_site_occupancy
  O   O1        1.0  0.039283261684056825  0.38424728814835873  0.046356898720645745  1.0000
  O   O2        1.0  0.20728319922758942  0.8064328479953886  0.01551001214244252  1.0000
  O   O3        1.0  0.31650499972446333  0.09960972312645566  0.22446951352220879  1.0000
  O   O4        1.0  0.43972811106753085  0.5846188161850336  0.5309642384208413  1.0000
  O   O5        1.0  0.8906838005603532  0.19659375462849038  0.7754807670659503  1.0000
  O   O6        1.0  0.768623306641885  0.8059705713748428  0.9865731273713152  1.0000
  O   O7        1.0  0.23281351630441804  0.5084986302962307  0.4499766122881681  1.0000
  O   O8        1.0  0.10508198931997126  0.6140287392029684  0.9706667610244821  1.0000
