data_image0
_chemical_formula_structural       O8
_chemical_formula_sum              "O8"
_cell_length_a       5.369789702272613
_cell_length_b       5.369789702272613
_cell_length_c       4.389828171850124
_cell_angle_alpha    69.24482967881451
_cell_angle_beta     69.24482967881451
_cell_angle_gamma    70.78662063844564

_space_group_name_H-M_alt    "P 1"
_space_group_IT_number       1

loop_
  _space_group_symop_operation_xyz
  'x, y, z'

loop_
  _atom_site_type_symbol
  _atom_site_label
  _atom_site_symmetry_multiplicity
  _atom_site_fract_x
  _atom_site_fract_y
  _atom_site_fract_z
  _atom_site_occupancy
  O   O1        1.0  0.2134389558926686  0.6127156132048516  0.02450515520503771  1.0000
  O   O2        1.0  0.12396126056184187  0.6241107252039839  0.8370066229638411  1.0000
  O   O3        1.0  0.27827399192934976  0.3749139805121189  0.7420742807802796  1.0000
  O   O4        1.0  0.30605807830964693  0.6898198892616572  0.3291735073753017  1.0000
  O   O5        1.0  0.2141182896076117  0.5504668088488636  0.617498214321472  1.0000
  O   O6        1.0  0.6363666693390897  0.651637997800016  0.35052079245652235  1.0000
  O   O7        1.0  0.9663547048289587  0.5341519563024306  0.24659927775258694  1.0000
  O   O8        1.0  0.2614272647723439  0.962182698351258  0.8526222399470029  1.0000
