data_image0
_chemical_formula_structural       O8
_chemical_formula_sum              "O8"
_cell_length_a       5.369789702272613
_cell_length_b       5.369789702272613
_cell_length_c       4.389828171850124
_cell_angle_alpha    69.24482967881451
_cell_angle_beta     69.24482967881451
_cell_angle_gamma    70.78662063844564

_space_group_name_H-M_alt    "P 1"
_space_group_IT_number       1

loop_
  _space_group_symop_operation_xyz
  'x, y, z'

loop_
  _atom_site_type_symbol
  _atom_site_label
  _atom_site_symmetry_multiplicity
  _atom_site_fract_x
  _atom_site_fract_y
  _atom_site_fract_z
  _atom_site_occupancy
  O   O1        1.0  0.5653903533998079  0.6116896694240381  0.7787568939636031  1.0000
  O   O2        1.0  0.6746967246807767  0.43909584211512964  0.028433008531692394  1.0000
  O   O3        1.0  0.46968615248862733  0.8363571057590313  0.9996576968481534  1.0000
  O   O4        1.0  0.12805103390074635  0.7382077695983704  0.09733203656757894  1.0000
  O   O5        1.0  0.33479461457931237  0.5369828875828873  0.14984772128303714  1.0000
  O   O6        1.0  0.38524885938825015  0.016286377890700976  0.892696720965791  1.0000
  O   O7        1.0  0.054555439188066046  0.1896046706895156  0.11668562198950738  1.0000
  O   O8        1.0  0.38757738704822486  0.631775560097589  0.9365910798106984  1.0000
