data_image0
_chemical_formula_structural       O8
_chemical_formula_sum              "O8"
_cell_length_a       5.369789702272613
_cell_length_b       5.369789702272613
_cell_length_c       4.389828171850124
_cell_angle_alpha    69.24482967881451
_cell_angle_beta     69.24482967881451
_cell_angle_gamma    70.78662063844564

_space_group_name_H-M_alt    "P 1"
_space_group_IT_number       1

loop_
  _space_group_symop_operation_xyz
  'x, y, z'

loop_
  _atom_site_type_symbol
  _atom_site_label
  _atom_site_symmetry_multiplicity
  _atom_site_fract_x
  _atom_site_fract_y
  _atom_site_fract_z
  _atom_site_occupancy
  O   O1        1.0  0.11250344288446179  0.3678907761434864  0.15437959565823078  1.0000
  O   O2        1.0  0.2889427931423114  0.033621701324214825  0.4645736293482585  1.0000
  O   O3        1.0  0.04473622607133976  0.605742276647451  0.4013770869181812  1.0000
  O   O4        1.0  0.7436160817187849  0.06723180836783627  0.40158037099348576  1.0000
  O   O5        1.0  0.7788119820403969  0.7047006154504025  0.5878600860602248  1.0000
  O   O6        1.0  0.5661319428714546  0.1755050880566671  0.03116886343387648  1.0000
  O   O7        1.0  0.08257555891112567  0.4906355991538689  0.8683419417110159  1.0000
  O   O8        1.0  0.38268202837312515  0.5546726171552656  0.0907172295320855  1.0000
