data_image0
_chemical_formula_structural       O8
_chemical_formula_sum              "O8"
_cell_length_a       5.369789702272613
_cell_length_b       5.369789702272613
_cell_length_c       4.389828171850124
_cell_angle_alpha    69.24482967881451
_cell_angle_beta     69.24482967881451
_cell_angle_gamma    70.78662063844564

_space_group_name_H-M_alt    "P 1"
_space_group_IT_number       1

loop_
  _space_group_symop_operation_xyz
  'x, y, z'

loop_
  _atom_site_type_symbol
  _atom_site_label
  _atom_site_symmetry_multiplicity
  _atom_site_fract_x
  _atom_site_fract_y
  _atom_site_fract_z
  _atom_site_occupancy
  O   O1        1.0  0.4114298504986671  0.1816292672640749  0.17023771198256554  1.0000
  O   O2        1.0  0.03313622500279578  0.285847169735046  0.9222049013731564  1.0000
  O   O3        1.0  0.052859915875927754  0.6469368522703078  0.7942405968086064  1.0000
  O   O4        1.0  0.14517927663216312  0.10798633654568146  0.6020805414521191  1.0000
  O   O5        1.0  0.5587443005767717  0.5595247816357727  0.7663601325110179  1.0000
  O   O6        1.0  0.7152582458606176  0.6898166070629408  0.888301412355375  1.0000
  O   O7        1.0  0.2688466836268688  0.27489091393712073  0.04666830393285615  1.0000
  O   O8        1.0  0.8145475876858086  0.2533680219847909  0.8099055996885696  1.0000
