data_image0
_chemical_formula_structural       O8
_chemical_formula_sum              "O8"
_cell_length_a       5.369789702272613
_cell_length_b       5.369789702272613
_cell_length_c       4.389828171850124
_cell_angle_alpha    69.24482967881451
_cell_angle_beta     69.24482967881451
_cell_angle_gamma    70.78662063844564

_space_group_name_H-M_alt    "P 1"
_space_group_IT_number       1

loop_
  _space_group_symop_operation_xyz
  'x, y, z'

loop_
  _atom_site_type_symbol
  _atom_site_label
  _atom_site_symmetry_multiplicity
  _atom_site_fract_x
  _atom_site_fract_y
  _atom_site_fract_z
  _atom_site_occupancy
  O   O1        1.0  0.41627359342140746  0.30275673408161197  0.44951129657324174  1.0000
  O   O2        1.0  0.2326857990724278  0.2454768780148342  0.7161561928342195  1.0000
  O   O3        1.0  0.4534011386639829  0.8716465136473346  0.4168727442208393  1.0000
  O   O4        1.0  0.26347487656809676  0.3799602988810258  0.18487490234589998  1.0000
  O   O5        1.0  0.5374436664356779  0.4731462020721722  0.6096130776535631  1.0000
  O   O6        1.0  0.43468732525316867  0.2563076258717878  0.35720663846289114  1.0000
  O   O7        1.0  0.735467408642549  0.04760669629798997  0.960132002266505  1.0000
  O   O8        1.0  0.9265679435822047  0.42309926835511646  0.3056318941569387  1.0000
