data_image0
_chemical_formula_structural       O8
_chemical_formula_sum              "O8"
_cell_length_a       5.369789702272613
_cell_length_b       5.369789702272613
_cell_length_c       4.389828171850124
_cell_angle_alpha    69.24482967881451
_cell_angle_beta     69.24482967881451
_cell_angle_gamma    70.78662063844564

_space_group_name_H-M_alt    "P 1"
_space_group_IT_number       1

loop_
  _space_group_symop_operation_xyz
  'x, y, z'

loop_
  _atom_site_type_symbol
  _atom_site_label
  _atom_site_symmetry_multiplicity
  _atom_site_fract_x
  _atom_site_fract_y
  _atom_site_fract_z
  _atom_site_occupancy
  O   O1        1.0  0.45303268219983295  0.7709892625356396  0.6209552035736436  1.0000
  O   O2        1.0  0.9569493984337005  0.5624687754104016  0.5915448594985335  1.0000
  O   O3        1.0  0.9570473734159037  0.2877586322236034  0.9300907136260079  1.0000
  O   O4        1.0  0.2358686924766893  0.07153947616582812  0.6471434314164526  1.0000
  O   O5        1.0  0.0365211717584053  0.5833044510159837  0.4941715359959771  1.0000
  O   O6        1.0  0.7158853743163682  0.34592687958670254  0.26755206156788347  1.0000
  O   O7        1.0  0.26320167138960393  0.3685839459825253  0.2820394222592242  1.0000
  O   O8        1.0  0.3814943673065301  0.009428046805843415  0.16650326200510968  1.0000
