data_image0
_chemical_formula_structural       O8
_chemical_formula_sum              "O8"
_cell_length_a       5.369789702272613
_cell_length_b       5.369789702272613
_cell_length_c       4.389828171850124
_cell_angle_alpha    69.24482967881451
_cell_angle_beta     69.24482967881451
_cell_angle_gamma    70.78662063844564

_space_group_name_H-M_alt    "P 1"
_space_group_IT_number       1

loop_
  _space_group_symop_operation_xyz
  'x, y, z'

loop_
  _atom_site_type_symbol
  _atom_site_label
  _atom_site_symmetry_multiplicity
  _atom_site_fract_x
  _atom_site_fract_y
  _atom_site_fract_z
  _atom_site_occupancy
  O   O1        1.0  0.805411026952207  0.5488309439848411  0.5462705639161669  1.0000
  O   O2        1.0  0.7309509078928187  0.5299960139695195  0.7500609474411206  1.0000
  O   O3        1.0  0.2749636972547904  0.705326704047593  0.43281167207227966  1.0000
  O   O4        1.0  0.1991736964518367  0.9735895272777686  0.6509454160011323  1.0000
  O   O5        1.0  0.9753543499095834  0.9972941327438036  0.564187650795045  1.0000
  O   O6        1.0  0.988799449157522  0.6065526949125459  0.6287598123524276  1.0000
  O   O7        1.0  0.11253871266937487  0.1365005943741302  0.8478875773910657  1.0000
  O   O8        1.0  0.9128097561373174  0.5019093456444992  0.5790753531464539  1.0000
