data_image0
_chemical_formula_structural       O8
_chemical_formula_sum              "O8"
_cell_length_a       5.369789702272613
_cell_length_b       5.369789702272613
_cell_length_c       4.389828171850124
_cell_angle_alpha    69.24482967881451
_cell_angle_beta     69.24482967881451
_cell_angle_gamma    70.78662063844564

_space_group_name_H-M_alt    "P 1"
_space_group_IT_number       1

loop_
  _space_group_symop_operation_xyz
  'x, y, z'

loop_
  _atom_site_type_symbol
  _atom_site_label
  _atom_site_symmetry_multiplicity
  _atom_site_fract_x
  _atom_site_fract_y
  _atom_site_fract_z
  _atom_site_occupancy
  O   O1        1.0  0.6908372932074398  0.10680979083997144  0.7152028843345022  1.0000
  O   O2        1.0  0.6070987602227547  0.43388731153453364  0.6817840812456382  1.0000
  O   O3        1.0  0.6870096120170777  0.3074914000913509  0.2300238697677912  1.0000
  O   O4        1.0  0.7930286042503738  0.8756248872843049  0.8303703565279683  1.0000
  O   O5        1.0  0.5253973096730391  0.40695134388037246  0.9520977112542397  1.0000
  O   O6        1.0  0.7197697404242831  0.30010159128940117  0.5269313461213159  1.0000
  O   O7        1.0  0.8551679332032833  0.6059288954225295  0.03691454059415378  1.0000
  O   O8        1.0  0.1216924790988827  0.9632050860100065  0.026673975259512872  1.0000
