data_image0
_chemical_formula_structural       O8
_chemical_formula_sum              "O8"
_cell_length_a       5.369789702272613
_cell_length_b       5.369789702272613
_cell_length_c       4.389828171850124
_cell_angle_alpha    69.24482967881451
_cell_angle_beta     69.24482967881451
_cell_angle_gamma    70.78662063844564

_space_group_name_H-M_alt    "P 1"
_space_group_IT_number       1

loop_
  _space_group_symop_operation_xyz
  'x, y, z'

loop_
  _atom_site_type_symbol
  _atom_site_label
  _atom_site_symmetry_multiplicity
  _atom_site_fract_x
  _atom_site_fract_y
  _atom_site_fract_z
  _atom_site_occupancy
  O   O1        1.0  0.4174774500547329  0.3169463361280478  0.8258369766974027  1.0000
  O   O2        1.0  0.9223625092243068  0.5083011165433255  0.9563365625508453  1.0000
  O   O3        1.0  0.8048401712682569  0.17457494162144016  0.9077915465147015  1.0000
  O   O4        1.0  0.870283702703837  0.13454673418514318  0.7743530218799517  1.0000
  O   O5        1.0  0.4205505453053746  0.3570009711556139  0.5874614009749983  1.0000
  O   O6        1.0  0.41855023341280884  0.08538249573424572  0.8265505694391351  1.0000
  O   O7        1.0  0.9337488433405947  0.9099925306301948  0.9942685843724917  1.0000
  O   O8        1.0  0.21218849438763243  0.513254333606735  0.1274013687464688  1.0000
