data_image0
_chemical_formula_structural       O8
_chemical_formula_sum              "O8"
_cell_length_a       5.369789702272613
_cell_length_b       5.369789702272613
_cell_length_c       4.389828171850124
_cell_angle_alpha    69.24482967881451
_cell_angle_beta     69.24482967881451
_cell_angle_gamma    70.78662063844564

_space_group_name_H-M_alt    "P 1"
_space_group_IT_number       1

loop_
  _space_group_symop_operation_xyz
  'x, y, z'

loop_
  _atom_site_type_symbol
  _atom_site_label
  _atom_site_symmetry_multiplicity
  _atom_site_fract_x
  _atom_site_fract_y
  _atom_site_fract_z
  _atom_site_occupancy
  O   O1        1.0  0.9608131891073519  0.6388345325336537  0.39175207374204035  1.0000
  O   O2        1.0  0.6945153996283508  0.8832052355809523  0.2721043425568723  1.0000
  O   O3        1.0  0.866596670008887  0.6723496950218717  0.9309472836734614  1.0000
  O   O4        1.0  0.5802704984741638  0.12808727382117358  0.353902413402146  1.0000
  O   O5        1.0  0.9780043486559578  0.9846758670572235  0.9550908412540622  1.0000
  O   O6        1.0  0.07933428555108435  0.6837066204921314  0.38588985256248876  1.0000
  O   O7        1.0  0.865829552044012  0.46327524489219485  0.28736213315284687  1.0000
  O   O8        1.0  0.9746378361881654  0.545865673970404  0.4229501629849679  1.0000
