data_image0
_chemical_formula_structural       O8
_chemical_formula_sum              "O8"
_cell_length_a       5.369789702272613
_cell_length_b       5.369789702272613
_cell_length_c       4.389828171850124
_cell_angle_alpha    69.24482967881451
_cell_angle_beta     69.24482967881451
_cell_angle_gamma    70.78662063844564

_space_group_name_H-M_alt    "P 1"
_space_group_IT_number       1

loop_
  _space_group_symop_operation_xyz
  'x, y, z'

loop_
  _atom_site_type_symbol
  _atom_site_label
  _atom_site_symmetry_multiplicity
  _atom_site_fract_x
  _atom_site_fract_y
  _atom_site_fract_z
  _atom_site_occupancy
  O   O1        1.0  0.6649590537737211  0.870015414517745  0.3518770509246991  1.0000
  O   O2        1.0  0.49570492315607595  0.19043265752366345  0.7576954456311924  1.0000
  O   O3        1.0  0.6235901324768776  0.37178012087182566  0.5184194013275487  1.0000
  O   O4        1.0  0.5195087274330561  0.38504910177440976  0.9237450664367799  1.0000
  O   O5        1.0  0.7870111144341561  0.45268096801132174  0.7508407030776993  1.0000
  O   O6        1.0  0.6133888119908875  0.8947597084565846  0.5525659325457397  1.0000
  O   O7        1.0  0.7566858328793042  0.13242649983177657  0.614883154957079  1.0000
  O   O8        1.0  0.5391531523237916  0.7028553194746845  0.5299730172072472  1.0000
