data_image0
_chemical_formula_structural       O8
_chemical_formula_sum              "O8"
_cell_length_a       5.369789702272613
_cell_length_b       5.369789702272613
_cell_length_c       4.389828171850124
_cell_angle_alpha    69.24482967881451
_cell_angle_beta     69.24482967881451
_cell_angle_gamma    70.78662063844564

_space_group_name_H-M_alt    "P 1"
_space_group_IT_number       1

loop_
  _space_group_symop_operation_xyz
  'x, y, z'

loop_
  _atom_site_type_symbol
  _atom_site_label
  _atom_site_symmetry_multiplicity
  _atom_site_fract_x
  _atom_site_fract_y
  _atom_site_fract_z
  _atom_site_occupancy
  O   O1        1.0  0.40333337906129074  0.8849736121167595  0.7246794321527261  1.0000
  O   O2        1.0  0.27684105713224794  0.5966487597113996  0.789935431470191  1.0000
  O   O3        1.0  0.2604203302288113  0.22064982582663362  0.9155071280724201  1.0000
  O   O4        1.0  0.15977586540812894  0.08724986464477169  0.6166222043190674  1.0000
  O   O5        1.0  0.6384016709362266  0.8117554616364444  0.7198902314494688  1.0000
  O   O6        1.0  0.7462587645504932  0.8804473805577828  0.7992440823464548  1.0000
  O   O7        1.0  0.27999483223538135  0.7032480822682672  0.7013107438878343  1.0000
  O   O8        1.0  0.2349761167496176  0.8150273056573898  0.7328096988078947  1.0000
