data_image0
_chemical_formula_structural       O8
_chemical_formula_sum              "O8"
_cell_length_a       5.369789702272613
_cell_length_b       5.369789702272613
_cell_length_c       4.389828171850124
_cell_angle_alpha    69.24482967881451
_cell_angle_beta     69.24482967881451
_cell_angle_gamma    70.78662063844564

_space_group_name_H-M_alt    "P 1"
_space_group_IT_number       1

loop_
  _space_group_symop_operation_xyz
  'x, y, z'

loop_
  _atom_site_type_symbol
  _atom_site_label
  _atom_site_symmetry_multiplicity
  _atom_site_fract_x
  _atom_site_fract_y
  _atom_site_fract_z
  _atom_site_occupancy
  O   O1        1.0  0.8642755172547112  0.5262762684133264  0.45073504918889284  1.0000
  O   O2        1.0  0.04922176313983684  0.4818868350775549  0.3897809241645689  1.0000
  O   O3        1.0  0.8405778646607587  0.7909586948601017  0.8337753999082906  1.0000
  O   O4        1.0  0.23938722781177546  0.0486499261197082  0.8161295554600052  1.0000
  O   O5        1.0  0.4317515292979195  0.7002788847156722  0.44106944133859827  1.0000
  O   O6        1.0  0.736399031613189  0.002701868982395439  0.4064648809244886  1.0000
  O   O7        1.0  0.4375494134960398  0.13291654020142651  0.7919736703603082  1.0000
  O   O8        1.0  0.4008398677173197  0.31633089402334885  0.8700705694300339  1.0000
