data_image0
_chemical_formula_structural       O8
_chemical_formula_sum              "O8"
_cell_length_a       5.369789702272613
_cell_length_b       5.369789702272613
_cell_length_c       4.389828171850124
_cell_angle_alpha    69.24482967881451
_cell_angle_beta     69.24482967881451
_cell_angle_gamma    70.78662063844564

_space_group_name_H-M_alt    "P 1"
_space_group_IT_number       1

loop_
  _space_group_symop_operation_xyz
  'x, y, z'

loop_
  _atom_site_type_symbol
  _atom_site_label
  _atom_site_symmetry_multiplicity
  _atom_site_fract_x
  _atom_site_fract_y
  _atom_site_fract_z
  _atom_site_occupancy
  O   O1        1.0  0.25603068611904245  0.354475940988511  0.604280892843164  1.0000
  O   O2        1.0  0.6175155620026089  0.34123340404238434  0.42049015716969507  1.0000
  O   O3        1.0  0.44046060909856954  0.6052096939723128  0.4917530868863764  1.0000
  O   O4        1.0  0.6070025540398731  0.10275054842398124  0.5988577421925498  1.0000
  O   O5        1.0  0.774721991334431  0.9941865041331326  0.5126071070108793  1.0000
  O   O6        1.0  0.2017040398114176  0.961471903460918  0.6218778755895116  1.0000
  O   O7        1.0  0.8689764061800886  0.08756606740841022  0.25721270583426303  1.0000
  O   O8        1.0  0.23358993820824736  0.5531062903718293  0.4929192582414217  1.0000
