data_image0
_chemical_formula_structural       O8
_chemical_formula_sum              "O8"
_cell_length_a       5.369789702272613
_cell_length_b       5.369789702272613
_cell_length_c       4.389828171850124
_cell_angle_alpha    69.24482967881451
_cell_angle_beta     69.24482967881451
_cell_angle_gamma    70.78662063844564

_space_group_name_H-M_alt    "P 1"
_space_group_IT_number       1

loop_
  _space_group_symop_operation_xyz
  'x, y, z'

loop_
  _atom_site_type_symbol
  _atom_site_label
  _atom_site_symmetry_multiplicity
  _atom_site_fract_x
  _atom_site_fract_y
  _atom_site_fract_z
  _atom_site_occupancy
  O   O1        1.0  0.49364013311963895  0.13878859875690353  0.8261866291496558  1.0000
  O   O2        1.0  0.2752448919232293  0.2848574326494955  0.8133347863046438  1.0000
  O   O3        1.0  0.9116184865885302  0.05381178565886202  0.9709323648750043  1.0000
  O   O4        1.0  0.049502111312332175  0.050106102748031844  0.5223939405551405  1.0000
  O   O5        1.0  0.05999032071031557  0.6924609815230802  0.3719800189466582  1.0000
  O   O6        1.0  0.5198562932956357  0.19895608097003503  0.5547516466699101  1.0000
  O   O7        1.0  0.9041589977044877  0.4720296374232156  0.8864255823870124  1.0000
  O   O8        1.0  0.7859889670365021  0.10898969068037978  0.05399382468377034  1.0000
