data_image0
_chemical_formula_structural       O8
_chemical_formula_sum              "O8"
_cell_length_a       5.369789702272613
_cell_length_b       5.369789702272613
_cell_length_c       4.389828171850124
_cell_angle_alpha    69.24482967881451
_cell_angle_beta     69.24482967881451
_cell_angle_gamma    70.78662063844564

_space_group_name_H-M_alt    "P 1"
_space_group_IT_number       1

loop_
  _space_group_symop_operation_xyz
  'x, y, z'

loop_
  _atom_site_type_symbol
  _atom_site_label
  _atom_site_symmetry_multiplicity
  _atom_site_fract_x
  _atom_site_fract_y
  _atom_site_fract_z
  _atom_site_occupancy
  O   O1        1.0  0.6496262489530409  0.8110878154678738  0.9502678436933305  1.0000
  O   O2        1.0  0.06409683601633986  0.8586219829433972  0.7556863914097036  1.0000
  O   O3        1.0  0.793802429608288  0.7996543159406428  0.948802834732021  1.0000
  O   O4        1.0  0.6829779253308343  0.7791087473683094  0.3982020166867848  1.0000
  O   O5        1.0  0.36781658768125425  0.5206811835433509  0.5361607904082462  1.0000
  O   O6        1.0  0.1019520529477198  0.7951850522505275  0.2599429643593112  1.0000
  O   O7        1.0  0.909257387266603  0.52103086725133  0.0887226934966705  1.0000
  O   O8        1.0  0.4304695334484805  0.9146295101811575  0.062214485519312746  1.0000
