data_image0
_chemical_formula_structural       O8
_chemical_formula_sum              "O8"
_cell_length_a       5.369789702272613
_cell_length_b       5.369789702272613
_cell_length_c       4.389828171850124
_cell_angle_alpha    69.24482967881451
_cell_angle_beta     69.24482967881451
_cell_angle_gamma    70.78662063844564

_space_group_name_H-M_alt    "P 1"
_space_group_IT_number       1

loop_
  _space_group_symop_operation_xyz
  'x, y, z'

loop_
  _atom_site_type_symbol
  _atom_site_label
  _atom_site_symmetry_multiplicity
  _atom_site_fract_x
  _atom_site_fract_y
  _atom_site_fract_z
  _atom_site_occupancy
  O   O1        1.0  0.8394153005101455  0.269386552436055  0.27956125178554814  1.0000
  O   O2        1.0  0.8262211656709963  0.9743492698074903  0.8241077219588746  1.0000
  O   O3        1.0  0.09600171522465217  0.6212220234097039  0.4993496579119068  1.0000
  O   O4        1.0  0.7100004129687747  0.5665364404087658  0.24830311399260552  1.0000
  O   O5        1.0  0.9272418207644222  0.1774141912566023  0.6641878895979536  1.0000
  O   O6        1.0  0.8694212330931244  0.9368644835438804  0.5770248083832747  1.0000
  O   O7        1.0  0.8469268466610007  0.38281832538530836  0.35110462971280043  1.0000
  O   O8        1.0  0.8847721231514143  0.071408580593318  0.5563615974142984  1.0000
