data_image0
_chemical_formula_structural       O8
_chemical_formula_sum              "O8"
_cell_length_a       5.369789702272613
_cell_length_b       5.369789702272613
_cell_length_c       4.389828171850124
_cell_angle_alpha    69.24482967881451
_cell_angle_beta     69.24482967881451
_cell_angle_gamma    70.78662063844564

_space_group_name_H-M_alt    "P 1"
_space_group_IT_number       1

loop_
  _space_group_symop_operation_xyz
  'x, y, z'

loop_
  _atom_site_type_symbol
  _atom_site_label
  _atom_site_symmetry_multiplicity
  _atom_site_fract_x
  _atom_site_fract_y
  _atom_site_fract_z
  _atom_site_occupancy
  O   O1        1.0  0.38356436507121394  0.44807154637850966  0.8235490976446407  1.0000
  O   O2        1.0  0.2584285283669061  0.7521613433298953  0.6455810037812526  1.0000
  O   O3        1.0  0.40190635184381307  0.10118753988786011  0.12175377765064255  1.0000
  O   O4        1.0  0.10397107034336628  0.9565105062473807  0.5617948078403714  1.0000
  O   O5        1.0  0.3869161603123601  0.533644514558345  0.6042307073015571  1.0000
  O   O6        1.0  0.25196448742027044  0.876664940488979  0.62929128323192  1.0000
  O   O7        1.0  0.39050445907129827  0.6507455354382969  0.6283270753534751  1.0000
  O   O8        1.0  0.8227436780318378  0.6810136322858051  0.9854724351722624  1.0000
