data_image0
_chemical_formula_structural       O8
_chemical_formula_sum              "O8"
_cell_length_a       5.369789702272613
_cell_length_b       5.369789702272613
_cell_length_c       4.389828171850124
_cell_angle_alpha    69.24482967881451
_cell_angle_beta     69.24482967881451
_cell_angle_gamma    70.78662063844564

_space_group_name_H-M_alt    "P 1"
_space_group_IT_number       1

loop_
  _space_group_symop_operation_xyz
  'x, y, z'

loop_
  _atom_site_type_symbol
  _atom_site_label
  _atom_site_symmetry_multiplicity
  _atom_site_fract_x
  _atom_site_fract_y
  _atom_site_fract_z
  _atom_site_occupancy
  O   O1        1.0  0.4730725033039178  0.8435863734153131  0.2943737497115251  1.0000
  O   O2        1.0  0.38300828816887744  0.0876989985279728  0.527865714982596  1.0000
  O   O3        1.0  0.36808292691954136  0.6409448510324296  0.9789080940484567  1.0000
  O   O4        1.0  0.4634389819856537  0.9876946973546783  0.8897166600862372  1.0000
  O   O5        1.0  0.8467529856762077  0.43740364439155144  0.6905656440412784  1.0000
  O   O6        1.0  0.5236186035978214  0.6651167411497045  0.15140668036772809  1.0000
  O   O7        1.0  0.03127026779093445  0.9587965621887058  0.9942849513017133  1.0000
  O   O8        1.0  0.9107569776114985  0.3787582354806567  0.4728775322447678  1.0000
