data_image0
_chemical_formula_structural       O8
_chemical_formula_sum              "O8"
_cell_length_a       5.369789702272613
_cell_length_b       5.369789702272613
_cell_length_c       4.389828171850124
_cell_angle_alpha    69.24482967881451
_cell_angle_beta     69.24482967881451
_cell_angle_gamma    70.78662063844564

_space_group_name_H-M_alt    "P 1"
_space_group_IT_number       1

loop_
  _space_group_symop_operation_xyz
  'x, y, z'

loop_
  _atom_site_type_symbol
  _atom_site_label
  _atom_site_symmetry_multiplicity
  _atom_site_fract_x
  _atom_site_fract_y
  _atom_site_fract_z
  _atom_site_occupancy
  O   O1        1.0  0.6449910251206603  0.3223966140396328  0.8413835106521219  1.0000
  O   O2        1.0  0.0646504942821231  0.6875055065761746  0.44260278715935897  1.0000
  O   O3        1.0  0.9431020917485142  0.39188278357493544  0.9732362710738158  1.0000
  O   O4        1.0  0.3585675351067721  0.38950011370064175  0.23223089718608136  1.0000
  O   O5        1.0  0.4313887558616596  0.3564205506451543  0.5655995331192187  1.0000
  O   O6        1.0  0.8111342842957399  0.5779981824264269  0.24780733882912287  1.0000
  O   O7        1.0  0.46968214389196206  0.3348806195740095  0.7912134292073016  1.0000
  O   O8        1.0  0.2764859529753636  0.9394153503989129  0.9059258118972515  1.0000
