data_image0
_chemical_formula_structural       O8
_chemical_formula_sum              "O8"
_cell_length_a       5.369789702272613
_cell_length_b       5.369789702272613
_cell_length_c       4.389828171850124
_cell_angle_alpha    69.24482967881451
_cell_angle_beta     69.24482967881451
_cell_angle_gamma    70.78662063844564

_space_group_name_H-M_alt    "P 1"
_space_group_IT_number       1

loop_
  _space_group_symop_operation_xyz
  'x, y, z'

loop_
  _atom_site_type_symbol
  _atom_site_label
  _atom_site_symmetry_multiplicity
  _atom_site_fract_x
  _atom_site_fract_y
  _atom_site_fract_z
  _atom_site_occupancy
  O   O1        1.0  0.4682887357799572  0.21576950190583588  0.8989868470156637  1.0000
  O   O2        1.0  0.16751175430413157  0.8188956508207035  0.2833360500147961  1.0000
  O   O3        1.0  0.05711464802096344  0.14660461457992824  0.7104299630385071  1.0000
  O   O4        1.0  0.047133320160135384  0.6359190681015594  0.9187444382123984  1.0000
  O   O5        1.0  0.22597959040340143  0.5201636050726179  0.44002712629826135  1.0000
  O   O6        1.0  0.14875320437279882  0.9112904975885314  0.7758229221640107  1.0000
  O   O7        1.0  0.5212763834132694  0.787580559860217  0.6215295970843631  1.0000
  O   O8        1.0  0.3639443115780878  0.9637768409481158  0.3511219956863929  1.0000
