data_image0
_chemical_formula_structural       O8
_chemical_formula_sum              "O8"
_cell_length_a       5.369789702272613
_cell_length_b       5.369789702272613
_cell_length_c       4.389828171850124
_cell_angle_alpha    69.24482967881451
_cell_angle_beta     69.24482967881451
_cell_angle_gamma    70.78662063844564

_space_group_name_H-M_alt    "P 1"
_space_group_IT_number       1

loop_
  _space_group_symop_operation_xyz
  'x, y, z'

loop_
  _atom_site_type_symbol
  _atom_site_label
  _atom_site_symmetry_multiplicity
  _atom_site_fract_x
  _atom_site_fract_y
  _atom_site_fract_z
  _atom_site_occupancy
  O   O1        1.0  0.6363681975786495  0.7807141730254514  0.591434179244132  1.0000
  O   O2        1.0  0.972537867994884  0.490783810933463  0.1471267819644666  1.0000
  O   O3        1.0  0.31039580009340284  0.9339117495795648  0.3625267697945773  1.0000
  O   O4        1.0  0.11404986687686858  0.004025379825179032  0.7889079976053432  1.0000
  O   O5        1.0  0.22400738625693006  0.19064948730092368  0.9873743565929445  1.0000
  O   O6        1.0  0.41608624728620924  0.848186925946532  0.9352640826414955  1.0000
  O   O7        1.0  0.9744084824123291  0.7172577944520278  0.837913600363164  1.0000
  O   O8        1.0  0.3521482806332159  0.034470578664056006  0.349451400769059  1.0000
