data_image0
_chemical_formula_structural       O8
_chemical_formula_sum              "O8"
_cell_length_a       5.369789702272613
_cell_length_b       5.369789702272613
_cell_length_c       4.389828171850124
_cell_angle_alpha    69.24482967881451
_cell_angle_beta     69.24482967881451
_cell_angle_gamma    70.78662063844564

_space_group_name_H-M_alt    "P 1"
_space_group_IT_number       1

loop_
  _space_group_symop_operation_xyz
  'x, y, z'

loop_
  _atom_site_type_symbol
  _atom_site_label
  _atom_site_symmetry_multiplicity
  _atom_site_fract_x
  _atom_site_fract_y
  _atom_site_fract_z
  _atom_site_occupancy
  O   O1        1.0  0.8532634412098172  0.3295125251369093  0.02515123425079846  1.0000
  O   O2        1.0  0.560940014459149  0.15324090895764897  0.9175596624593894  1.0000
  O   O3        1.0  0.21659757583500294  0.8580864675142479  0.6151183813869139  1.0000
  O   O4        1.0  0.6379093687764628  0.24987176532609645  0.37179249161908956  1.0000
  O   O5        1.0  0.9928835297466314  0.354738461607333  0.9282554338930566  1.0000
  O   O6        1.0  0.5608897973259257  0.07339440631105987  0.268781765803622  1.0000
  O   O7        1.0  0.818564149575753  0.7841975955227873  0.6326427602376725  1.0000
  O   O8        1.0  0.3589518861208614  0.19695729245471227  0.24069828722926445  1.0000
