data_image0
_chemical_formula_structural       O8
_chemical_formula_sum              "O8"
_cell_length_a       5.369789702272613
_cell_length_b       5.369789702272613
_cell_length_c       4.389828171850124
_cell_angle_alpha    69.24482967881451
_cell_angle_beta     69.24482967881451
_cell_angle_gamma    70.78662063844564

_space_group_name_H-M_alt    "P 1"
_space_group_IT_number       1

loop_
  _space_group_symop_operation_xyz
  'x, y, z'

loop_
  _atom_site_type_symbol
  _atom_site_label
  _atom_site_symmetry_multiplicity
  _atom_site_fract_x
  _atom_site_fract_y
  _atom_site_fract_z
  _atom_site_occupancy
  O   O1        1.0  0.668378540573201  0.4779466540283579  0.8932091600305796  1.0000
  O   O2        1.0  0.4391380037688286  0.9683892208973646  0.33456563544762474  1.0000
  O   O3        1.0  0.027750204249425536  0.5865589100776134  0.7327683705865269  1.0000
  O   O4        1.0  0.015574114444525833  0.24445066505421664  0.39158683726025956  1.0000
  O   O5        1.0  0.39391363962779025  0.31979332381389725  0.4915222793143812  1.0000
  O   O6        1.0  0.9176220204428063  0.06845711467034477  0.07177528321627591  1.0000
  O   O7        1.0  0.6900764535023907  0.7246333958237337  0.3842809930898774  1.0000
  O   O8        1.0  0.8475486910331682  0.6097700480019661  0.7002923681574131  1.0000
