data_image0
_chemical_formula_structural       O8
_chemical_formula_sum              "O8"
_cell_length_a       5.369789702272613
_cell_length_b       5.369789702272613
_cell_length_c       4.389828171850124
_cell_angle_alpha    69.24482967881451
_cell_angle_beta     69.24482967881451
_cell_angle_gamma    70.78662063844564

_space_group_name_H-M_alt    "P 1"
_space_group_IT_number       1

loop_
  _space_group_symop_operation_xyz
  'x, y, z'

loop_
  _atom_site_type_symbol
  _atom_site_label
  _atom_site_symmetry_multiplicity
  _atom_site_fract_x
  _atom_site_fract_y
  _atom_site_fract_z
  _atom_site_occupancy
  O   O1        1.0  0.958307358429515  0.7767797587274163  0.4766753631984173  1.0000
  O   O2        1.0  0.7851174636882514  0.7497027267574836  0.42491860615462684  1.0000
  O   O3        1.0  0.5280253705944702  0.7073266139626107  0.143115334080953  1.0000
  O   O4        1.0  0.440025215758471  0.7141679934630254  0.031949589622977115  1.0000
  O   O5        1.0  0.06496014180736864  0.12290377071484926  0.9611142006719691  1.0000
  O   O6        1.0  0.7166678990688258  0.8714128214348538  0.29272425558624704  1.0000
  O   O7        1.0  0.7575910041025278  0.19239571566717117  0.30028963712837253  1.0000
  O   O8        1.0  0.7493062582827861  0.8653102633058278  0.36921353192845885  1.0000
