data_image0
_chemical_formula_structural       O8
_chemical_formula_sum              "O8"
_cell_length_a       5.369789702272613
_cell_length_b       5.369789702272613
_cell_length_c       4.389828171850124
_cell_angle_alpha    69.24482967881451
_cell_angle_beta     69.24482967881451
_cell_angle_gamma    70.78662063844564

_space_group_name_H-M_alt    "P 1"
_space_group_IT_number       1

loop_
  _space_group_symop_operation_xyz
  'x, y, z'

loop_
  _atom_site_type_symbol
  _atom_site_label
  _atom_site_symmetry_multiplicity
  _atom_site_fract_x
  _atom_site_fract_y
  _atom_site_fract_z
  _atom_site_occupancy
  O   O1        1.0  0.8064772590822606  0.5224989498661152  0.876227473573735  1.0000
  O   O2        1.0  0.6121878042136295  0.39149287070224936  0.15640108208746284  1.0000
  O   O3        1.0  0.3981968471896522  0.24259102162149304  0.2612890348853867  1.0000
  O   O4        1.0  0.7393531324841192  0.47201354078998037  0.4162944354401432  1.0000
  O   O5        1.0  0.4490242016903281  0.26630903083444935  0.47384169936673004  1.0000
  O   O6        1.0  0.37884583362543367  0.02387808056130325  0.9777880584209342  1.0000
  O   O7        1.0  0.1644906864532274  0.5690840144672933  0.6174636488627883  1.0000
  O   O8        1.0  0.4514262756886538  0.5121324760517947  0.2206934396847462  1.0000
