data_image0
_chemical_formula_structural       O8
_chemical_formula_sum              "O8"
_cell_length_a       5.369789702272613
_cell_length_b       5.369789702272613
_cell_length_c       4.389828171850124
_cell_angle_alpha    69.24482967881451
_cell_angle_beta     69.24482967881451
_cell_angle_gamma    70.78662063844564

_space_group_name_H-M_alt    "P 1"
_space_group_IT_number       1

loop_
  _space_group_symop_operation_xyz
  'x, y, z'

loop_
  _atom_site_type_symbol
  _atom_site_label
  _atom_site_symmetry_multiplicity
  _atom_site_fract_x
  _atom_site_fract_y
  _atom_site_fract_z
  _atom_site_occupancy
  O   O1        1.0  0.05906151171387242  0.1768143591190583  0.22079595967831978  1.0000
  O   O2        1.0  0.350283770510913  0.8127681411575551  0.0917559764492708  1.0000
  O   O3        1.0  0.5432552191037647  0.21593936647131073  0.9608272820424588  1.0000
  O   O4        1.0  0.24109516800373498  0.8900161429578226  0.497027238722346  1.0000
  O   O5        1.0  0.2133292018979489  0.8860480787442704  0.30156799395140155  1.0000
  O   O6        1.0  0.11091707742924228  0.1852654566154257  0.4176031676629073  1.0000
  O   O7        1.0  0.6714398154981964  0.3298268263410762  0.18669261959004047  1.0000
  O   O8        1.0  0.8106198651872774  0.5033211778001814  0.3237293312451399  1.0000
