data_image0
_chemical_formula_structural       O8
_chemical_formula_sum              "O8"
_cell_length_a       5.369789702272613
_cell_length_b       5.369789702272613
_cell_length_c       4.389828171850124
_cell_angle_alpha    69.24482967881451
_cell_angle_beta     69.24482967881451
_cell_angle_gamma    70.78662063844564

_space_group_name_H-M_alt    "P 1"
_space_group_IT_number       1

loop_
  _space_group_symop_operation_xyz
  'x, y, z'

loop_
  _atom_site_type_symbol
  _atom_site_label
  _atom_site_symmetry_multiplicity
  _atom_site_fract_x
  _atom_site_fract_y
  _atom_site_fract_z
  _atom_site_occupancy
  O   O1        1.0  0.4639725192710529  0.8800330061519475  0.42454097745395103  1.0000
  O   O2        1.0  0.2736788856862682  0.6867994170020495  0.3933127231634259  1.0000
  O   O3        1.0  0.8235873209871514  0.7996342538958459  0.864866958584745  1.0000
  O   O4        1.0  0.55098440330136  0.24768333071273263  0.6937701611903151  1.0000
  O   O5        1.0  0.91728846064942  0.7188342301710762  0.8828959684330115  1.0000
  O   O6        1.0  0.9884710744972649  0.19382700459250657  0.4484980450272893  1.0000
  O   O7        1.0  0.30683576966379533  0.7280838263898985  0.7934242582010356  1.0000
  O   O8        1.0  0.6751822992475489  0.7451044870674597  0.4986914000677256  1.0000
