data_image0
_chemical_formula_structural       O8
_chemical_formula_sum              "O8"
_cell_length_a       5.369789702272613
_cell_length_b       5.369789702272613
_cell_length_c       4.389828171850124
_cell_angle_alpha    69.24482967881451
_cell_angle_beta     69.24482967881451
_cell_angle_gamma    70.78662063844564

_space_group_name_H-M_alt    "P 1"
_space_group_IT_number       1

loop_
  _space_group_symop_operation_xyz
  'x, y, z'

loop_
  _atom_site_type_symbol
  _atom_site_label
  _atom_site_symmetry_multiplicity
  _atom_site_fract_x
  _atom_site_fract_y
  _atom_site_fract_z
  _atom_site_occupancy
  O   O1        1.0  0.11489049444929123  0.3844986728187081  0.5154169056206399  1.0000
  O   O2        1.0  0.2919674560246337  0.8364268086212938  0.3537968505414  1.0000
  O   O3        1.0  0.9600899967720906  0.05763338109679239  0.5751033005177106  1.0000
  O   O4        1.0  0.29693829247724324  0.004745193226918687  0.15703848194772574  1.0000
  O   O5        1.0  0.8709615659291865  0.7741097642961492  0.6184725487743137  1.0000
  O   O6        1.0  0.48253664992892453  0.2969022639006482  0.1548635254699775  1.0000
  O   O7        1.0  0.521833207471385  0.9413040898909202  0.7228103878449375  1.0000
  O   O8        1.0  0.4607843271600167  0.7043801303194082  0.9024969399277154  1.0000
