data_image0
_chemical_formula_structural       O8
_chemical_formula_sum              "O8"
_cell_length_a       5.369789702272613
_cell_length_b       5.369789702272613
_cell_length_c       4.389828171850124
_cell_angle_alpha    69.24482967881451
_cell_angle_beta     69.24482967881451
_cell_angle_gamma    70.78662063844564

_space_group_name_H-M_alt    "P 1"
_space_group_IT_number       1

loop_
  _space_group_symop_operation_xyz
  'x, y, z'

loop_
  _atom_site_type_symbol
  _atom_site_label
  _atom_site_symmetry_multiplicity
  _atom_site_fract_x
  _atom_site_fract_y
  _atom_site_fract_z
  _atom_site_occupancy
  O   O1        1.0  0.954473528677684  0.9586595566164897  0.02944703056619602  1.0000
  O   O2        1.0  0.9518953473067304  0.6188755307582241  0.5227118433330737  1.0000
  O   O3        1.0  0.8887997528136751  0.21335351441755535  0.1749758594256674  1.0000
  O   O4        1.0  0.6584959327361624  0.4346665075573024  0.6908028007848088  1.0000
  O   O5        1.0  0.46517402555586074  0.6964540194827933  0.976361066056404  1.0000
  O   O6        1.0  0.1523258502087188  0.8167139266363517  0.6909487836340915  1.0000
  O   O7        1.0  0.7337212674928892  0.25198998972834374  0.37741919542534674  1.0000
  O   O8        1.0  0.1951148431849674  0.009286988624682913  0.5373337896358374  1.0000
