data_image0
_chemical_formula_structural       O8
_chemical_formula_sum              "O8"
_cell_length_a       5.369789702272613
_cell_length_b       5.369789702272613
_cell_length_c       4.389828171850124
_cell_angle_alpha    69.24482967881451
_cell_angle_beta     69.24482967881451
_cell_angle_gamma    70.78662063844564

_space_group_name_H-M_alt    "P 1"
_space_group_IT_number       1

loop_
  _space_group_symop_operation_xyz
  'x, y, z'

loop_
  _atom_site_type_symbol
  _atom_site_label
  _atom_site_symmetry_multiplicity
  _atom_site_fract_x
  _atom_site_fract_y
  _atom_site_fract_z
  _atom_site_occupancy
  O   O1        1.0  0.44772064962942437  0.8057903161784878  0.6419678070810022  1.0000
  O   O2        1.0  0.6293975039126831  0.9049911935453441  0.20291215434900423  1.0000
  O   O3        1.0  0.5251078609689017  0.350462354524101  0.556816346909784  1.0000
  O   O4        1.0  0.6581173121820854  0.6643626601849313  0.24761205645465267  1.0000
  O   O5        1.0  0.15373331788921618  0.05810382259150515  0.6951806003543481  1.0000
  O   O6        1.0  0.9563623158159587  0.3475120026952565  0.5209666594752562  1.0000
  O   O7        1.0  0.7111441064309396  0.029288093506016466  0.44455988731057516  1.0000
  O   O8        1.0  0.9184184927532257  0.8394886747842376  0.6899856850907327  1.0000
