data_image0
_chemical_formula_structural       O8
_chemical_formula_sum              "O8"
_cell_length_a       5.369789702272613
_cell_length_b       5.369789702272613
_cell_length_c       4.389828171850124
_cell_angle_alpha    69.24482967881451
_cell_angle_beta     69.24482967881451
_cell_angle_gamma    70.78662063844564

_space_group_name_H-M_alt    "P 1"
_space_group_IT_number       1

loop_
  _space_group_symop_operation_xyz
  'x, y, z'

loop_
  _atom_site_type_symbol
  _atom_site_label
  _atom_site_symmetry_multiplicity
  _atom_site_fract_x
  _atom_site_fract_y
  _atom_site_fract_z
  _atom_site_occupancy
  O   O1        1.0  0.2620344109547048  0.9876228933305313  0.9382533627971128  1.0000
  O   O2        1.0  0.010975399359164584  0.3628082252846223  0.9082541555696011  1.0000
  O   O3        1.0  0.3202938832247284  0.9404897435685164  0.6946466221768262  1.0000
  O   O4        1.0  0.13104491382556205  0.5004143932696081  0.8871340060271855  1.0000
  O   O5        1.0  0.23920788503817114  0.6975068527731025  0.9275300531263433  1.0000
  O   O6        1.0  0.2053661736064072  0.3891259320259213  0.2027977568584447  1.0000
  O   O7        1.0  0.283009653400903  0.8593200698455368  0.5185460223444576  1.0000
  O   O8        1.0  0.5480694925723668  0.26271168275325785  0.9228378187898088  1.0000
