data_image0
_chemical_formula_structural       O8
_chemical_formula_sum              "O8"
_cell_length_a       5.369789702272613
_cell_length_b       5.369789702272613
_cell_length_c       4.389828171850124
_cell_angle_alpha    69.24482967881451
_cell_angle_beta     69.24482967881451
_cell_angle_gamma    70.78662063844564

_space_group_name_H-M_alt    "P 1"
_space_group_IT_number       1

loop_
  _space_group_symop_operation_xyz
  'x, y, z'

loop_
  _atom_site_type_symbol
  _atom_site_label
  _atom_site_symmetry_multiplicity
  _atom_site_fract_x
  _atom_site_fract_y
  _atom_site_fract_z
  _atom_site_occupancy
  O   O1        1.0  0.6563477798380326  0.6742388949310261  0.3831820830776955  1.0000
  O   O2        1.0  0.1842207435541141  0.2590442566754021  0.39465859688206706  1.0000
  O   O3        1.0  0.25621609095274067  0.856134140612248  0.28800820667529337  1.0000
  O   O4        1.0  0.733611178230098  0.04885573642655672  0.11383997754746389  1.0000
  O   O5        1.0  0.48725675844882455  0.31027150728347586  0.7113769707514805  1.0000
  O   O6        1.0  0.4084880023031503  0.6238539037051751  0.5598183105384535  1.0000
  O   O7        1.0  0.030407255664707478  0.25156696442437365  0.21672554806171007  1.0000
  O   O8        1.0  0.24345230530011452  0.9760350181492079  0.33238909389313775  1.0000
