data_image0
_chemical_formula_structural       O8
_chemical_formula_sum              "O8"
_cell_length_a       5.369789702272613
_cell_length_b       5.369789702272613
_cell_length_c       4.389828171850124
_cell_angle_alpha    69.24482967881451
_cell_angle_beta     69.24482967881451
_cell_angle_gamma    70.78662063844564

_space_group_name_H-M_alt    "P 1"
_space_group_IT_number       1

loop_
  _space_group_symop_operation_xyz
  'x, y, z'

loop_
  _atom_site_type_symbol
  _atom_site_label
  _atom_site_symmetry_multiplicity
  _atom_site_fract_x
  _atom_site_fract_y
  _atom_site_fract_z
  _atom_site_occupancy
  O   O1        1.0  0.7284465845790038  0.7894922989606528  0.12275623912258027  1.0000
  O   O2        1.0  0.22133182544278718  0.8561655411196529  0.7997334621547765  1.0000
  O   O3        1.0  0.339053468352688  0.505373003853407  0.6787822493873108  1.0000
  O   O4        1.0  0.34526773508035546  0.2011493033653089  0.3633732127055822  1.0000
  O   O5        1.0  0.1870571048157217  0.17265498296019643  0.3490712083281693  1.0000
  O   O6        1.0  0.9739691886424282  0.6077738378347215  0.36607282939333174  1.0000
  O   O7        1.0  0.25671709743577864  0.19854128413040728  0.4633604633803472  1.0000
  O   O8        1.0  0.9481585644748449  0.6688490914810155  0.8568514087912362  1.0000
