data_image0
_chemical_formula_structural       O8
_chemical_formula_sum              "O8"
_cell_length_a       5.369789702272613
_cell_length_b       5.369789702272613
_cell_length_c       4.389828171850124
_cell_angle_alpha    69.24482967881451
_cell_angle_beta     69.24482967881451
_cell_angle_gamma    70.78662063844564

_space_group_name_H-M_alt    "P 1"
_space_group_IT_number       1

loop_
  _space_group_symop_operation_xyz
  'x, y, z'

loop_
  _atom_site_type_symbol
  _atom_site_label
  _atom_site_symmetry_multiplicity
  _atom_site_fract_x
  _atom_site_fract_y
  _atom_site_fract_z
  _atom_site_occupancy
  O   O1        1.0  0.4006142641429147  0.8478152376032853  0.592220539321751  1.0000
  O   O2        1.0  0.6437644525300001  0.5931570148151266  0.8078433413381418  1.0000
  O   O3        1.0  0.07805012025540492  0.266972972461069  0.5765816274104907  1.0000
  O   O4        1.0  0.1749640089151896  0.32153053327714076  0.09051716433571144  1.0000
  O   O5        1.0  0.27711094956691795  0.054901357739231216  0.6870376492730941  1.0000
  O   O6        1.0  0.3192412341350792  0.08653004490113858  0.6433466931714236  1.0000
  O   O7        1.0  0.0018698947387250087  0.5682222699466308  0.11385614160791135  1.0000
  O   O8        1.0  0.10438683700767415  0.26087059018501435  0.4885959270643241  1.0000
