data_image0
_chemical_formula_structural       O8
_chemical_formula_sum              "O8"
_cell_length_a       5.369789702272613
_cell_length_b       5.369789702272613
_cell_length_c       4.389828171850124
_cell_angle_alpha    69.24482967881451
_cell_angle_beta     69.24482967881451
_cell_angle_gamma    70.78662063844564

_space_group_name_H-M_alt    "P 1"
_space_group_IT_number       1

loop_
  _space_group_symop_operation_xyz
  'x, y, z'

loop_
  _atom_site_type_symbol
  _atom_site_label
  _atom_site_symmetry_multiplicity
  _atom_site_fract_x
  _atom_site_fract_y
  _atom_site_fract_z
  _atom_site_occupancy
  O   O1        1.0  0.900291989317676  0.8185435983330684  0.3134557966300875  1.0000
  O   O2        1.0  0.8740710482568392  0.9440385647300857  0.5756056510248797  1.0000
  O   O3        1.0  0.19526526134144007  0.8436643825915802  0.439845046095364  1.0000
  O   O4        1.0  0.4842019600025793  0.2822249523833573  0.9308653855554923  1.0000
  O   O5        1.0  0.8701878691063882  0.8252464929471444  0.011983797728282841  1.0000
  O   O6        1.0  0.2705487413564318  0.9172560758721735  0.249583151201211  1.0000
  O   O7        1.0  0.5440522579796401  0.8209592938533881  0.41514437818782923  1.0000
  O   O8        1.0  0.86138179516648  0.548065927500871  0.06351705115463346  1.0000
