data_image0
_chemical_formula_structural       O8
_chemical_formula_sum              "O8"
_cell_length_a       5.369789702272613
_cell_length_b       5.369789702272613
_cell_length_c       4.389828171850124
_cell_angle_alpha    69.24482967881451
_cell_angle_beta     69.24482967881451
_cell_angle_gamma    70.78662063844564

_space_group_name_H-M_alt    "P 1"
_space_group_IT_number       1

loop_
  _space_group_symop_operation_xyz
  'x, y, z'

loop_
  _atom_site_type_symbol
  _atom_site_label
  _atom_site_symmetry_multiplicity
  _atom_site_fract_x
  _atom_site_fract_y
  _atom_site_fract_z
  _atom_site_occupancy
  O   O1        1.0  0.9328572041996779  0.9076892440792435  0.8602847033610317  1.0000
  O   O2        1.0  0.4551618773124151  0.9949924902352354  0.4970474251906509  1.0000
  O   O3        1.0  0.45992637338623865  0.061038851344459744  0.6316837430690043  1.0000
  O   O4        1.0  0.6814914783105692  0.8723731805035015  0.6693976402492332  1.0000
  O   O5        1.0  0.22553200145596364  0.8881045407564869  0.2490354326813886  1.0000
  O   O6        1.0  0.14613251767474367  0.14100040445581596  0.9437016416195441  1.0000
  O   O7        1.0  0.5956500750098055  0.44409394595711316  0.5476073317751187  1.0000
  O   O8        1.0  0.5032500707426522  0.6907065808521953  0.6012432134466366  1.0000
