data_image0
_chemical_formula_structural       O8
_chemical_formula_sum              "O8"
_cell_length_a       5.369789702272613
_cell_length_b       5.369789702272613
_cell_length_c       4.389828171850124
_cell_angle_alpha    69.24482967881451
_cell_angle_beta     69.24482967881451
_cell_angle_gamma    70.78662063844564

_space_group_name_H-M_alt    "P 1"
_space_group_IT_number       1

loop_
  _space_group_symop_operation_xyz
  'x, y, z'

loop_
  _atom_site_type_symbol
  _atom_site_label
  _atom_site_symmetry_multiplicity
  _atom_site_fract_x
  _atom_site_fract_y
  _atom_site_fract_z
  _atom_site_occupancy
  O   O1        1.0  0.6420999743191618  0.8132332857977964  0.5509035552379657  1.0000
  O   O2        1.0  0.6419815606578751  0.9948809826221066  0.5324734782469349  1.0000
  O   O3        1.0  0.6318141430029225  0.5270797081387641  0.37757374915579334  1.0000
  O   O4        1.0  0.056074270283026806  0.5929989701509832  0.9548923945220409  1.0000
  O   O5        1.0  0.6108503516209041  0.2968300171585305  0.5322416792961917  1.0000
  O   O6        1.0  0.3250042337618311  0.37688018417290436  0.810768230875734  1.0000
  O   O7        1.0  0.7587010250964283  0.22625458277605048  0.9738290313303608  1.0000
  O   O8        1.0  0.3334762874805435  0.1718420963440579  0.2673168464674234  1.0000
