data_image0
_chemical_formula_structural       O8
_chemical_formula_sum              "O8"
_cell_length_a       5.369789702272613
_cell_length_b       5.369789702272613
_cell_length_c       4.389828171850124
_cell_angle_alpha    69.24482967881451
_cell_angle_beta     69.24482967881451
_cell_angle_gamma    70.78662063844564

_space_group_name_H-M_alt    "P 1"
_space_group_IT_number       1

loop_
  _space_group_symop_operation_xyz
  'x, y, z'

loop_
  _atom_site_type_symbol
  _atom_site_label
  _atom_site_symmetry_multiplicity
  _atom_site_fract_x
  _atom_site_fract_y
  _atom_site_fract_z
  _atom_site_occupancy
  O   O1        1.0  0.6088391042597863  0.18011381873355958  0.35197208546564696  1.0000
  O   O2        1.0  0.14943568842110722  0.1045377280075499  0.9289020693199745  1.0000
  O   O3        1.0  0.8616878723820278  0.5915558816522619  0.06954789294715624  1.0000
  O   O4        1.0  0.11427654823429378  0.24398457760753578  0.8436135472003148  1.0000
  O   O5        1.0  0.008828145810672686  0.9558450815559354  0.8232149846369339  1.0000
  O   O6        1.0  0.03746791134130234  0.9204745275623125  0.20389282008855503  1.0000
  O   O7        1.0  0.9708876775978084  0.05714255553015235  0.06075956441705799  1.0000
  O   O8        1.0  0.2485791374284041  0.9463458488828262  0.7180961782211224  1.0000
