data_image0
_chemical_formula_structural       O8
_chemical_formula_sum              "O8"
_cell_length_a       5.369789702272613
_cell_length_b       5.369789702272613
_cell_length_c       4.389828171850124
_cell_angle_alpha    69.24482967881451
_cell_angle_beta     69.24482967881451
_cell_angle_gamma    70.78662063844564

_space_group_name_H-M_alt    "P 1"
_space_group_IT_number       1

loop_
  _space_group_symop_operation_xyz
  'x, y, z'

loop_
  _atom_site_type_symbol
  _atom_site_label
  _atom_site_symmetry_multiplicity
  _atom_site_fract_x
  _atom_site_fract_y
  _atom_site_fract_z
  _atom_site_occupancy
  O   O1        1.0  0.3452484206718047  0.20518798533313287  0.7974201201658957  1.0000
  O   O2        1.0  0.988216825925079  0.044576503989816274  0.6397608472740757  1.0000
  O   O3        1.0  0.5642719015765625  0.15314708659100518  0.20720110377129686  1.0000
  O   O4        1.0  0.583686753863887  0.894689687248595  0.8525991400675039  1.0000
  O   O5        1.0  0.2610543195702206  0.1317274513059914  0.3785367459906155  1.0000
  O   O6        1.0  0.14315190328453298  0.04605514002967581  0.8524578824850835  1.0000
  O   O7        1.0  0.43894391976972713  0.8932665969226008  0.44275307141745657  1.0000
  O   O8        1.0  0.6754276226005587  0.6313498151461587  0.829269879964933  1.0000
