data_image0
_chemical_formula_structural       O8
_chemical_formula_sum              "O8"
_cell_length_a       5.369789702272613
_cell_length_b       5.369789702272613
_cell_length_c       4.389828171850124
_cell_angle_alpha    69.24482967881451
_cell_angle_beta     69.24482967881451
_cell_angle_gamma    70.78662063844564

_space_group_name_H-M_alt    "P 1"
_space_group_IT_number       1

loop_
  _space_group_symop_operation_xyz
  'x, y, z'

loop_
  _atom_site_type_symbol
  _atom_site_label
  _atom_site_symmetry_multiplicity
  _atom_site_fract_x
  _atom_site_fract_y
  _atom_site_fract_z
  _atom_site_occupancy
  O   O1        1.0  0.7308107763087435  0.5954663474905946  0.5997154003264953  1.0000
  O   O2        1.0  0.1454020220591552  0.6649744020707935  0.19265600404195027  1.0000
  O   O3        1.0  0.04825524250554736  0.9196613259742534  0.04581386496641304  1.0000
  O   O4        1.0  0.7765553964670957  0.8857296019349903  0.39362161704045606  1.0000
  O   O5        1.0  0.6866286740512386  0.619205027185167  0.42773753586482677  1.0000
  O   O6        1.0  0.6233803989624747  0.9600175972367406  0.47654187488193855  1.0000
  O   O7        1.0  0.3528051063981579  0.02209882623418835  0.2649993740773491  1.0000
  O   O8        1.0  0.6361639782084474  0.33284642659939045  0.5989135789204987  1.0000
