data_image0
_chemical_formula_structural       O8
_chemical_formula_sum              "O8"
_cell_length_a       5.369789702272613
_cell_length_b       5.369789702272613
_cell_length_c       4.389828171850124
_cell_angle_alpha    69.24482967881451
_cell_angle_beta     69.24482967881451
_cell_angle_gamma    70.78662063844564

_space_group_name_H-M_alt    "P 1"
_space_group_IT_number       1

loop_
  _space_group_symop_operation_xyz
  'x, y, z'

loop_
  _atom_site_type_symbol
  _atom_site_label
  _atom_site_symmetry_multiplicity
  _atom_site_fract_x
  _atom_site_fract_y
  _atom_site_fract_z
  _atom_site_occupancy
  O   O1        1.0  0.21327043690711633  0.6014575789484695  0.8470867831333351  1.0000
  O   O2        1.0  0.7170864767707137  0.5649210776215945  0.9048406177900077  1.0000
  O   O3        1.0  0.1650501639819879  0.3851357835715774  0.717418460986984  1.0000
  O   O4        1.0  0.9798222797584373  0.4881241929572191  0.3949260568199122  1.0000
  O   O5        1.0  0.10580316029990833  0.08325052463423788  0.7672185112584273  1.0000
  O   O6        1.0  0.0970108844843125  0.018979579032336602  0.233247377531562  1.0000
  O   O7        1.0  0.4787503147483463  0.1297031126815016  0.13669573017809533  1.0000
  O   O8        1.0  0.24320849917516085  0.7284280045003022  0.9985659696878884  1.0000
