data_image0
_chemical_formula_structural       O8
_chemical_formula_sum              "O8"
_cell_length_a       5.369789702272613
_cell_length_b       5.369789702272613
_cell_length_c       4.389828171850124
_cell_angle_alpha    69.24482967881451
_cell_angle_beta     69.24482967881451
_cell_angle_gamma    70.78662063844564

_space_group_name_H-M_alt    "P 1"
_space_group_IT_number       1

loop_
  _space_group_symop_operation_xyz
  'x, y, z'

loop_
  _atom_site_type_symbol
  _atom_site_label
  _atom_site_symmetry_multiplicity
  _atom_site_fract_x
  _atom_site_fract_y
  _atom_site_fract_z
  _atom_site_occupancy
  O   O1        1.0  0.8683232427423011  0.9265533868137492  0.22664593598190574  1.0000
  O   O2        1.0  0.26185545505027363  0.7452657076672224  0.31212356067544533  1.0000
  O   O3        1.0  0.6567468609916034  0.6800402675312611  0.9543438425536159  1.0000
  O   O4        1.0  0.6653820560878421  0.329271548073768  0.6301465345824724  1.0000
  O   O5        1.0  0.5747117874619754  0.11051865812941664  0.7639858843657876  1.0000
  O   O6        1.0  0.822615595686738  0.12405667353338146  0.13273554898978368  1.0000
  O   O7        1.0  0.9844131300667058  0.850089546494381  0.6890818202281253  1.0000
  O   O8        1.0  0.1659508300064303  0.23420380360627924  0.29093691061402893  1.0000
