data_image0
_chemical_formula_structural       O8
_chemical_formula_sum              "O8"
_cell_length_a       5.369789702272613
_cell_length_b       5.369789702272613
_cell_length_c       4.389828171850124
_cell_angle_alpha    69.24482967881451
_cell_angle_beta     69.24482967881451
_cell_angle_gamma    70.78662063844564

_space_group_name_H-M_alt    "P 1"
_space_group_IT_number       1

loop_
  _space_group_symop_operation_xyz
  'x, y, z'

loop_
  _atom_site_type_symbol
  _atom_site_label
  _atom_site_symmetry_multiplicity
  _atom_site_fract_x
  _atom_site_fract_y
  _atom_site_fract_z
  _atom_site_occupancy
  O   O1        1.0  0.8240108893489797  0.6170643734291088  0.5608027283864736  1.0000
  O   O2        1.0  0.34496550006514326  0.6059476152488585  0.3421301459695556  1.0000
  O   O3        1.0  0.20437711825859495  0.5502117403357545  0.3282696116500077  1.0000
  O   O4        1.0  0.7529914200804209  0.842257121644006  0.021855435679015045  1.0000
  O   O5        1.0  0.793379292918317  0.4510241680057554  0.4225804450596442  1.0000
  O   O6        1.0  0.17561279582975686  0.8550082413531719  0.9849067121289199  1.0000
  O   O7        1.0  0.583191174122824  0.8713771142043427  0.45177791507588694  1.0000
  O   O8        1.0  0.3214708413479812  0.20710911012460187  0.8876771657499987  1.0000
