data_image0
_chemical_formula_structural       O8
_chemical_formula_sum              "O8"
_cell_length_a       5.369789702272613
_cell_length_b       5.369789702272613
_cell_length_c       4.389828171850124
_cell_angle_alpha    69.24482967881451
_cell_angle_beta     69.24482967881451
_cell_angle_gamma    70.78662063844564

_space_group_name_H-M_alt    "P 1"
_space_group_IT_number       1

loop_
  _space_group_symop_operation_xyz
  'x, y, z'

loop_
  _atom_site_type_symbol
  _atom_site_label
  _atom_site_symmetry_multiplicity
  _atom_site_fract_x
  _atom_site_fract_y
  _atom_site_fract_z
  _atom_site_occupancy
  O   O1        1.0  0.5085770572701662  0.09790158858167786  0.1667506302016335  1.0000
  O   O2        1.0  0.7391405261667181  0.15091697559179096  0.3128934456379824  1.0000
  O   O3        1.0  0.37977210008838114  0.44086563520768607  0.18721433721629666  1.0000
  O   O4        1.0  0.6894584503388543  0.9979302268962567  0.8463544972757777  1.0000
  O   O5        1.0  0.9854541629103654  0.9948683335234918  0.7798772690526263  1.0000
  O   O6        1.0  0.25266673007197227  0.5255962355485302  0.19358855737092284  1.0000
  O   O7        1.0  0.8663527523889023  0.5761908389689623  0.6879576950256716  1.0000
  O   O8        1.0  0.5785802935400675  0.21573027465340822  0.8253625908850086  1.0000
