data_image0
_chemical_formula_structural       O8
_chemical_formula_sum              "O8"
_cell_length_a       5.369789702272613
_cell_length_b       5.369789702272613
_cell_length_c       4.389828171850124
_cell_angle_alpha    69.24482967881451
_cell_angle_beta     69.24482967881451
_cell_angle_gamma    70.78662063844564

_space_group_name_H-M_alt    "P 1"
_space_group_IT_number       1

loop_
  _space_group_symop_operation_xyz
  'x, y, z'

loop_
  _atom_site_type_symbol
  _atom_site_label
  _atom_site_symmetry_multiplicity
  _atom_site_fract_x
  _atom_site_fract_y
  _atom_site_fract_z
  _atom_site_occupancy
  O   O1        1.0  0.887474345432076  0.9976775666184317  0.3243209779502294  1.0000
  O   O2        1.0  0.41192647239761015  0.6985891003662132  0.04287086880684399  1.0000
  O   O3        1.0  0.4305303627282271  0.011039703877600004  0.6769811095185077  1.0000
  O   O4        1.0  0.5689143611291527  0.9802146359643897  0.6459293941121302  1.0000
  O   O5        1.0  0.44937346764942276  0.10237566770089757  0.8946751332077056  1.0000
  O   O6        1.0  0.4994832223557282  0.9472407842214281  0.4412446782843533  1.0000
  O   O7        1.0  0.3490975138792365  0.2917911004859519  0.5857772783009807  1.0000
  O   O8        1.0  0.4032013619664596  0.9710708740768119  0.3882004160681092  1.0000
