data_image0
_chemical_formula_structural       O8
_chemical_formula_sum              "O8"
_cell_length_a       5.369789702272613
_cell_length_b       5.369789702272613
_cell_length_c       4.389828171850124
_cell_angle_alpha    69.24482967881451
_cell_angle_beta     69.24482967881451
_cell_angle_gamma    70.78662063844564

_space_group_name_H-M_alt    "P 1"
_space_group_IT_number       1

loop_
  _space_group_symop_operation_xyz
  'x, y, z'

loop_
  _atom_site_type_symbol
  _atom_site_label
  _atom_site_symmetry_multiplicity
  _atom_site_fract_x
  _atom_site_fract_y
  _atom_site_fract_z
  _atom_site_occupancy
  O   O1        1.0  0.39588191924092264  0.44160010392599247  0.13210664371872483  1.0000
  O   O2        1.0  0.5056525398513096  0.9783846649872956  0.6537194701041784  1.0000
  O   O3        1.0  0.29250234472210224  0.8481058686848009  0.9400233077211055  1.0000
  O   O4        1.0  0.18467210855069638  0.09292856149602091  0.360943407817202  1.0000
  O   O5        1.0  0.9388072500784972  0.194369023987484  0.0292103583649312  1.0000
  O   O6        1.0  0.5386804963326508  0.6504546188411826  0.9608500488941019  1.0000
  O   O7        1.0  0.47278857458902124  0.9384331856123893  0.47760048770280505  1.0000
  O   O8        1.0  0.6710153942071457  0.8557238956317703  0.44554698693571915  1.0000
