data_image0
_chemical_formula_structural       O8
_chemical_formula_sum              "O8"
_cell_length_a       5.369789702272613
_cell_length_b       5.369789702272613
_cell_length_c       4.389828171850124
_cell_angle_alpha    69.24482967881451
_cell_angle_beta     69.24482967881451
_cell_angle_gamma    70.78662063844564

_space_group_name_H-M_alt    "P 1"
_space_group_IT_number       1

loop_
  _space_group_symop_operation_xyz
  'x, y, z'

loop_
  _atom_site_type_symbol
  _atom_site_label
  _atom_site_symmetry_multiplicity
  _atom_site_fract_x
  _atom_site_fract_y
  _atom_site_fract_z
  _atom_site_occupancy
  O   O1        1.0  0.9503808892246539  0.4928318244724572  0.017714536981639384  1.0000
  O   O2        1.0  0.42428798001432266  0.6894496728416684  0.8976546025398804  1.0000
  O   O3        1.0  0.8999700492093581  0.5603459770902646  0.29830747864956564  1.0000
  O   O4        1.0  0.2876250678310406  0.2552979017196515  0.3927615934883857  1.0000
  O   O5        1.0  0.14424765200994116  0.37114591840164124  0.5242894874176098  1.0000
  O   O6        1.0  0.8226854488213817  0.27420865966224284  0.03863202626634887  1.0000
  O   O7        1.0  0.7784512808229493  0.1928267072948131  0.2626096204006103  1.0000
  O   O8        1.0  0.6923521435878435  0.16389328841421547  0.5680315331506627  1.0000
