data_image0
_chemical_formula_structural       O8
_chemical_formula_sum              "O8"
_cell_length_a       5.369789702272613
_cell_length_b       5.369789702272613
_cell_length_c       4.389828171850124
_cell_angle_alpha    69.24482967881451
_cell_angle_beta     69.24482967881451
_cell_angle_gamma    70.78662063844564

_space_group_name_H-M_alt    "P 1"
_space_group_IT_number       1

loop_
  _space_group_symop_operation_xyz
  'x, y, z'

loop_
  _atom_site_type_symbol
  _atom_site_label
  _atom_site_symmetry_multiplicity
  _atom_site_fract_x
  _atom_site_fract_y
  _atom_site_fract_z
  _atom_site_occupancy
  O   O1        1.0  0.8241298945250355  0.009899306382991746  0.11062919875064514  1.0000
  O   O2        1.0  0.020027156757059572  0.5844945388028258  0.3626354489976009  1.0000
  O   O3        1.0  0.46794764490097585  0.22446817619494652  0.1643727806675841  1.0000
  O   O4        1.0  0.5780867862133299  0.0572715975743705  0.7333450900693208  1.0000
  O   O5        1.0  0.7827054459183048  0.8558843742469477  0.8656320699436115  1.0000
  O   O6        1.0  0.3043897252100951  0.8629583995728467  0.26938498948682543  1.0000
  O   O7        1.0  0.8635310709958963  0.6683877091303594  0.9787043995542177  1.0000
  O   O8        1.0  0.15918228708219573  0.7366356713695392  0.515295722518097  1.0000
