data_image0
_chemical_formula_structural       O8
_chemical_formula_sum              "O8"
_cell_length_a       5.369789702272613
_cell_length_b       5.369789702272613
_cell_length_c       4.389828171850124
_cell_angle_alpha    69.24482967881451
_cell_angle_beta     69.24482967881451
_cell_angle_gamma    70.78662063844564

_space_group_name_H-M_alt    "P 1"
_space_group_IT_number       1

loop_
  _space_group_symop_operation_xyz
  'x, y, z'

loop_
  _atom_site_type_symbol
  _atom_site_label
  _atom_site_symmetry_multiplicity
  _atom_site_fract_x
  _atom_site_fract_y
  _atom_site_fract_z
  _atom_site_occupancy
  O   O1        1.0  0.6889663048539323  0.018153753372134318  0.2892796662842412  1.0000
  O   O2        1.0  0.7443287745199108  0.7776404217724107  0.15088863265080477  1.0000
  O   O3        1.0  0.6681607183269254  0.5605879589754679  0.35259020578508427  1.0000
  O   O4        1.0  0.5198851418379853  0.1423937614242643  0.3519386823374724  1.0000
  O   O5        1.0  0.0941641287007815  0.9594882165234182  0.8002431441208344  1.0000
  O   O6        1.0  0.12915225170367073  0.7239176407745731  0.4127880678696769  1.0000
  O   O7        1.0  0.7027181815297054  0.5161458080514721  0.8943319929571203  1.0000
  O   O8        1.0  0.4526245520990315  0.3016724338689758  0.7479392377778211  1.0000
