data_image0
_chemical_formula_structural       O8
_chemical_formula_sum              "O8"
_cell_length_a       5.369789702272613
_cell_length_b       5.369789702272613
_cell_length_c       4.389828171850124
_cell_angle_alpha    69.24482967881451
_cell_angle_beta     69.24482967881451
_cell_angle_gamma    70.78662063844564

_space_group_name_H-M_alt    "P 1"
_space_group_IT_number       1

loop_
  _space_group_symop_operation_xyz
  'x, y, z'

loop_
  _atom_site_type_symbol
  _atom_site_label
  _atom_site_symmetry_multiplicity
  _atom_site_fract_x
  _atom_site_fract_y
  _atom_site_fract_z
  _atom_site_occupancy
  O   O1        1.0  0.6099884367392328  0.25959920160518735  0.9198055395600804  1.0000
  O   O2        1.0  0.06782902088304965  0.04288584333682266  0.23816000006345917  1.0000
  O   O3        1.0  0.9611069909041632  0.5065513528679695  0.6045499543413531  1.0000
  O   O4        1.0  0.6694453486380425  0.12835005030525082  0.13103866836998712  1.0000
  O   O5        1.0  0.314519145649534  0.5238838616129726  0.3337640059299991  1.0000
  O   O6        1.0  0.022268665447873204  0.7755659575932139  0.6554750931611366  1.0000
  O   O7        1.0  0.7101599391269211  0.16415766448078628  0.5080456267503966  1.0000
  O   O8        1.0  0.6446833885408445  0.5990053734686009  0.6091613144380865  1.0000
