data_image0
_chemical_formula_structural       O8
_chemical_formula_sum              "O8"
_cell_length_a       5.369789702272613
_cell_length_b       5.369789702272613
_cell_length_c       4.389828171850124
_cell_angle_alpha    69.24482967881451
_cell_angle_beta     69.24482967881451
_cell_angle_gamma    70.78662063844564

_space_group_name_H-M_alt    "P 1"
_space_group_IT_number       1

loop_
  _space_group_symop_operation_xyz
  'x, y, z'

loop_
  _atom_site_type_symbol
  _atom_site_label
  _atom_site_symmetry_multiplicity
  _atom_site_fract_x
  _atom_site_fract_y
  _atom_site_fract_z
  _atom_site_occupancy
  O   O1        1.0  0.5271974567357987  0.07968711966681674  0.9060362297512938  1.0000
  O   O2        1.0  0.8283111281552298  0.9503015872066101  0.6056122299991209  1.0000
  O   O3        1.0  0.5821513907651124  0.47476613358814035  0.823830557173153  1.0000
  O   O4        1.0  0.9783035724890681  0.929081496089962  0.5704443028105848  1.0000
  O   O5        1.0  0.5413230752219356  0.7784147952787492  0.32128563372536867  1.0000
  O   O6        1.0  0.3219369923268367  0.8264348106089595  0.6750111434503836  1.0000
  O   O7        1.0  0.09636561053780746  0.2584844693770947  0.17349539535659098  1.0000
  O   O8        1.0  0.12441202333448587  0.7028288450415806  0.924284246320731  1.0000
