data_image0
_chemical_formula_structural       O8
_chemical_formula_sum              "O8"
_cell_length_a       5.369789702272613
_cell_length_b       5.369789702272613
_cell_length_c       4.389828171850124
_cell_angle_alpha    69.24482967881451
_cell_angle_beta     69.24482967881451
_cell_angle_gamma    70.78662063844564

_space_group_name_H-M_alt    "P 1"
_space_group_IT_number       1

loop_
  _space_group_symop_operation_xyz
  'x, y, z'

loop_
  _atom_site_type_symbol
  _atom_site_label
  _atom_site_symmetry_multiplicity
  _atom_site_fract_x
  _atom_site_fract_y
  _atom_site_fract_z
  _atom_site_occupancy
  O   O1        1.0  0.18915641275371442  0.7807902944881473  0.8362257657331043  1.0000
  O   O2        1.0  0.3802893705244088  0.5731718887738708  0.6027674877773066  1.0000
  O   O3        1.0  0.3134246509700027  0.4708796550216654  0.2225060697044583  1.0000
  O   O4        1.0  0.0315783555519058  0.06320028775534414  0.10677991356967453  1.0000
  O   O5        1.0  0.5278662735502083  0.5687562368878041  0.398899137669666  1.0000
  O   O6        1.0  0.5464331852372117  0.6044709809297117  0.8915455539777426  1.0000
  O   O7        1.0  0.12859584700523374  0.7876750500536698  0.8815258582222754  1.0000
  O   O8        1.0  0.8826561655343248  0.1510558214660982  0.05974912462069071  1.0000
