data_image0
_chemical_formula_structural       O8
_chemical_formula_sum              "O8"
_cell_length_a       5.369789702272613
_cell_length_b       5.369789702272613
_cell_length_c       4.389828171850124
_cell_angle_alpha    69.24482967881451
_cell_angle_beta     69.24482967881451
_cell_angle_gamma    70.78662063844564

_space_group_name_H-M_alt    "P 1"
_space_group_IT_number       1

loop_
  _space_group_symop_operation_xyz
  'x, y, z'

loop_
  _atom_site_type_symbol
  _atom_site_label
  _atom_site_symmetry_multiplicity
  _atom_site_fract_x
  _atom_site_fract_y
  _atom_site_fract_z
  _atom_site_occupancy
  O   O1        1.0  0.7827998859049288  0.981836551390451  0.2013878053038951  1.0000
  O   O2        1.0  0.8280792821972831  0.36952050071886156  0.05977782030583256  1.0000
  O   O3        1.0  0.16604480559089296  0.053466391212587894  0.09335911150350285  1.0000
  O   O4        1.0  0.22397935241159672  0.4428826386450666  0.13930982959192306  1.0000
  O   O5        1.0  0.9795035273982755  0.3088926721078167  0.7716073597779527  1.0000
  O   O6        1.0  0.10192203559494573  0.9425335294379362  0.8454809124403582  1.0000
  O   O7        1.0  0.1409964642567889  0.31270884344950645  0.28163274443276975  1.0000
  O   O8        1.0  0.7766763542062165  0.5881585691658859  0.6074442708938861  1.0000
