data_image0
_chemical_formula_structural       O8
_chemical_formula_sum              "O8"
_cell_length_a       5.369789702272613
_cell_length_b       5.369789702272613
_cell_length_c       4.389828171850124
_cell_angle_alpha    69.24482967881451
_cell_angle_beta     69.24482967881451
_cell_angle_gamma    70.78662063844564

_space_group_name_H-M_alt    "P 1"
_space_group_IT_number       1

loop_
  _space_group_symop_operation_xyz
  'x, y, z'

loop_
  _atom_site_type_symbol
  _atom_site_label
  _atom_site_symmetry_multiplicity
  _atom_site_fract_x
  _atom_site_fract_y
  _atom_site_fract_z
  _atom_site_occupancy
  O   O1        1.0  0.7207787396508891  0.2708352861293619  0.8650051879464953  1.0000
  O   O2        1.0  0.405854440827369  0.6004386902600345  0.5890208409617443  1.0000
  O   O3        1.0  0.3623893602279473  0.2784407813531047  0.6397073129730764  1.0000
  O   O4        1.0  0.3491694792979496  0.5094360603732095  0.2194725979153631  1.0000
  O   O5        1.0  0.3583064594787757  0.7443229619475584  0.9276351191213337  1.0000
  O   O6        1.0  0.5663996494478027  0.8944483424523426  0.6652890303473917  1.0000
  O   O7        1.0  0.10733366803354016  0.27810978279214993  0.5552664611346216  1.0000
  O   O8        1.0  0.12976723822723812  0.4239676661840175  0.5386035510539173  1.0000
