data_image0
_chemical_formula_structural       O8
_chemical_formula_sum              "O8"
_cell_length_a       5.369789702272613
_cell_length_b       5.369789702272613
_cell_length_c       4.389828171850124
_cell_angle_alpha    69.24482967881451
_cell_angle_beta     69.24482967881451
_cell_angle_gamma    70.78662063844564

_space_group_name_H-M_alt    "P 1"
_space_group_IT_number       1

loop_
  _space_group_symop_operation_xyz
  'x, y, z'

loop_
  _atom_site_type_symbol
  _atom_site_label
  _atom_site_symmetry_multiplicity
  _atom_site_fract_x
  _atom_site_fract_y
  _atom_site_fract_z
  _atom_site_occupancy
  O   O1        1.0  0.10201961566156115  0.35576040116012564  0.2225530195362211  1.0000
  O   O2        1.0  0.3578868058452329  0.7012871267543961  0.454355005321041  1.0000
  O   O3        1.0  0.34041902802358237  0.636098400261929  0.9609514172369984  1.0000
  O   O4        1.0  0.41868472135721646  0.8871930296971584  0.6514994142202717  1.0000
  O   O5        1.0  0.5663581846509587  0.5902172455507468  0.9642176713497292  1.0000
  O   O6        1.0  0.06206109225619372  0.5122316377947556  0.008026081457238377  1.0000
  O   O7        1.0  0.46816775273061606  0.34096551239111417  0.6037064738802158  1.0000
  O   O8        1.0  0.6844046985488816  0.9762461673224951  0.13469086362170657  1.0000
