data_image0
_chemical_formula_structural       O8
_chemical_formula_sum              "O8"
_cell_length_a       5.369789702272613
_cell_length_b       5.369789702272613
_cell_length_c       4.389828171850124
_cell_angle_alpha    69.24482967881451
_cell_angle_beta     69.24482967881451
_cell_angle_gamma    70.78662063844564

_space_group_name_H-M_alt    "P 1"
_space_group_IT_number       1

loop_
  _space_group_symop_operation_xyz
  'x, y, z'

loop_
  _atom_site_type_symbol
  _atom_site_label
  _atom_site_symmetry_multiplicity
  _atom_site_fract_x
  _atom_site_fract_y
  _atom_site_fract_z
  _atom_site_occupancy
  O   O1        1.0  0.20424737759150347  0.4822352071656857  0.32829720443147536  1.0000
  O   O2        1.0  0.25099547534601907  0.1759283114194048  0.05082599989721359  1.0000
  O   O3        1.0  0.5583258651410858  0.9515294961939098  0.10283462237188701  1.0000
  O   O4        1.0  0.18337886259105218  0.032493358187100085  0.24590783114870618  1.0000
  O   O5        1.0  0.7910738048041672  0.4816453722673977  0.6768599147855308  1.0000
  O   O6        1.0  0.3640036061895042  0.8705534333400653  0.7197459213409942  1.0000
  O   O7        1.0  0.4328276853344484  0.5320407058216325  0.2152076912542782  1.0000
  O   O8        1.0  0.21514787897297438  0.47357413207769916  0.6603212521756223  1.0000
