data_image0
_chemical_formula_structural       O8
_chemical_formula_sum              "O8"
_cell_length_a       5.369789702272613
_cell_length_b       5.369789702272613
_cell_length_c       4.389828171850124
_cell_angle_alpha    69.24482967881451
_cell_angle_beta     69.24482967881451
_cell_angle_gamma    70.78662063844564

_space_group_name_H-M_alt    "P 1"
_space_group_IT_number       1

loop_
  _space_group_symop_operation_xyz
  'x, y, z'

loop_
  _atom_site_type_symbol
  _atom_site_label
  _atom_site_symmetry_multiplicity
  _atom_site_fract_x
  _atom_site_fract_y
  _atom_site_fract_z
  _atom_site_occupancy
  O   O1        1.0  0.7895955224754345  0.8209000036499301  0.4480294111956056  1.0000
  O   O2        1.0  0.46947760165865304  0.8393754277953676  0.6017145129558799  1.0000
  O   O3        1.0  0.11813299866976479  0.0174772169109616  0.2554534854760675  1.0000
  O   O4        1.0  0.14853108962480022  0.8204048746603494  0.5238200311409109  1.0000
  O   O5        1.0  0.5157599747827177  0.38416579533934936  0.21818726818372625  1.0000
  O   O6        1.0  0.20429593117904687  0.19955981201611195  0.10817471388188338  1.0000
  O   O7        1.0  0.3219461695662531  0.029824632398160134  0.8003188020931447  1.0000
  O   O8        1.0  0.4322617179989976  0.8882916582480895  0.04430153781711965  1.0000
