data_image0
_chemical_formula_structural       O8
_chemical_formula_sum              "O8"
_cell_length_a       5.369789702272613
_cell_length_b       5.369789702272613
_cell_length_c       4.389828171850124
_cell_angle_alpha    69.24482967881451
_cell_angle_beta     69.24482967881451
_cell_angle_gamma    70.78662063844564

_space_group_name_H-M_alt    "P 1"
_space_group_IT_number       1

loop_
  _space_group_symop_operation_xyz
  'x, y, z'

loop_
  _atom_site_type_symbol
  _atom_site_label
  _atom_site_symmetry_multiplicity
  _atom_site_fract_x
  _atom_site_fract_y
  _atom_site_fract_z
  _atom_site_occupancy
  O   O1        1.0  0.5169681874694554  0.9822668143081641  0.9687993464099327  1.0000
  O   O2        1.0  0.8467264036564899  0.22520568392751272  0.6000304219419874  1.0000
  O   O3        1.0  0.9361286804584594  0.39966958125678786  0.03684191741676912  1.0000
  O   O4        1.0  0.32090324351063837  0.8763479493742957  0.0633389701972078  1.0000
  O   O5        1.0  0.5290161962999527  0.2439495616532401  0.4056323556667678  1.0000
  O   O6        1.0  0.0336039016451295  0.6367852870760231  0.3497051532616018  1.0000
  O   O7        1.0  0.8089398658922917  0.4308775326803804  0.800783438175138  1.0000
  O   O8        1.0  0.0077126809928387274  0.2048970937108141  0.7748686196288901  1.0000
