data_image0
_chemical_formula_structural       O8
_chemical_formula_sum              "O8"
_cell_length_a       5.369789702272613
_cell_length_b       5.369789702272613
_cell_length_c       4.389828171850124
_cell_angle_alpha    69.24482967881451
_cell_angle_beta     69.24482967881451
_cell_angle_gamma    70.78662063844564

_space_group_name_H-M_alt    "P 1"
_space_group_IT_number       1

loop_
  _space_group_symop_operation_xyz
  'x, y, z'

loop_
  _atom_site_type_symbol
  _atom_site_label
  _atom_site_symmetry_multiplicity
  _atom_site_fract_x
  _atom_site_fract_y
  _atom_site_fract_z
  _atom_site_occupancy
  O   O1        1.0  0.7868222677007375  0.12720871420366375  0.9041319535038365  1.0000
  O   O2        1.0  0.29247444593460337  0.43720051742506527  0.01349343392965352  1.0000
  O   O3        1.0  0.9767618264833988  0.2554185320304416  0.7580165885882835  1.0000
  O   O4        1.0  0.6814594512693546  0.42509189752739296  0.9144528232972355  1.0000
  O   O5        1.0  0.3010310324701324  0.6421489380083902  0.22275316625231767  1.0000
  O   O6        1.0  0.7702098168543907  0.8897429396039307  0.9011987420982823  1.0000
  O   O7        1.0  0.9460126125257098  0.5129570406879198  0.29467691231425874  1.0000
  O   O8        1.0  0.24522826484669125  0.7102310599124779  0.9912762615167097  1.0000
