data_image0
_chemical_formula_structural       O8
_chemical_formula_sum              "O8"
_cell_length_a       5.369789702272613
_cell_length_b       5.369789702272613
_cell_length_c       4.389828171850124
_cell_angle_alpha    69.24482967881451
_cell_angle_beta     69.24482967881451
_cell_angle_gamma    70.78662063844564

_space_group_name_H-M_alt    "P 1"
_space_group_IT_number       1

loop_
  _space_group_symop_operation_xyz
  'x, y, z'

loop_
  _atom_site_type_symbol
  _atom_site_label
  _atom_site_symmetry_multiplicity
  _atom_site_fract_x
  _atom_site_fract_y
  _atom_site_fract_z
  _atom_site_occupancy
  O   O1        1.0  0.044090942727287086  0.21321829344454812  0.4177162213392265  1.0000
  O   O2        1.0  0.9607039191412472  0.46280663875176486  0.31521209343998535  1.0000
  O   O3        1.0  0.07312817181702513  0.3546418184702773  0.5792301644827944  1.0000
  O   O4        1.0  0.24416107465407322  0.3374802014140368  0.7604106925115586  1.0000
  O   O5        1.0  0.5097957943057239  0.8414369079539057  0.16012156218226004  1.0000
  O   O6        1.0  0.031356274997705214  0.6166811960285976  0.04639498191998115  1.0000
  O   O7        1.0  0.5534782451819495  0.5853336213511362  0.45275350912159773  1.0000
  O   O8        1.0  0.583286615404333  0.5884005958039555  0.26816083640942523  1.0000
