data_image0
_chemical_formula_structural       O8
_chemical_formula_sum              "O8"
_cell_length_a       5.369789702272613
_cell_length_b       5.369789702272613
_cell_length_c       4.389828171850124
_cell_angle_alpha    69.24482967881451
_cell_angle_beta     69.24482967881451
_cell_angle_gamma    70.78662063844564

_space_group_name_H-M_alt    "P 1"
_space_group_IT_number       1

loop_
  _space_group_symop_operation_xyz
  'x, y, z'

loop_
  _atom_site_type_symbol
  _atom_site_label
  _atom_site_symmetry_multiplicity
  _atom_site_fract_x
  _atom_site_fract_y
  _atom_site_fract_z
  _atom_site_occupancy
  O   O1        1.0  0.43115290618251434  0.9713648275936961  0.6918523655699786  1.0000
  O   O2        1.0  0.026646145975803393  0.10913082068492486  0.7911402391376114  1.0000
  O   O3        1.0  0.49521435419962057  0.4770234336822199  0.5039313455309227  1.0000
  O   O4        1.0  0.4651471070730864  0.25796015991890187  0.6670647690615823  1.0000
  O   O5        1.0  0.228024624087098  0.510119901565421  0.19556364325467257  1.0000
  O   O6        1.0  0.027402331767852672  0.7096197087455529  0.2790435398480824  1.0000
  O   O7        1.0  0.3103913860481171  0.06981206295356657  0.3094835400517866  1.0000
  O   O8        1.0  0.016022837621704866  0.8949694260803938  0.5619196369221626  1.0000
