data_image0
_chemical_formula_structural       O8
_chemical_formula_sum              "O8"
_cell_length_a       5.369789702272613
_cell_length_b       5.369789702272613
_cell_length_c       4.389828171850124
_cell_angle_alpha    69.24482967881451
_cell_angle_beta     69.24482967881451
_cell_angle_gamma    70.78662063844564

_space_group_name_H-M_alt    "P 1"
_space_group_IT_number       1

loop_
  _space_group_symop_operation_xyz
  'x, y, z'

loop_
  _atom_site_type_symbol
  _atom_site_label
  _atom_site_symmetry_multiplicity
  _atom_site_fract_x
  _atom_site_fract_y
  _atom_site_fract_z
  _atom_site_occupancy
  O   O1        1.0  0.8000967691240675  0.11126314946688964  0.5570474534731886  1.0000
  O   O2        1.0  0.01044593468096644  0.42299168708468926  0.5691953661139593  1.0000
  O   O3        1.0  0.31593902422891773  0.26754297000211125  0.5736291001910985  1.0000
  O   O4        1.0  0.034525587462482576  0.0177904397240205  0.4341108071795901  1.0000
  O   O5        1.0  0.9463641713607753  0.19414919005307496  0.32867279486245593  1.0000
  O   O6        1.0  0.7110285633158888  0.22993758477598192  0.42289965866131496  1.0000
  O   O7        1.0  0.2811973833970107  0.5211153567071065  0.5188345834440957  1.0000
  O   O8        1.0  0.9004044557228603  0.23520992033147703  0.5956092065703995  1.0000
