data_image0
_chemical_formula_structural       Zr6O2
_chemical_formula_sum              "Zr6 O2"
_cell_length_a       6.134914507501862
_cell_length_b       6.1349153257016615
_cell_length_c       6.134914356239584
_cell_angle_alpha    54.88477413085703
_cell_angle_beta     54.884762997898356
_cell_angle_gamma    54.88476707413904

_space_group_name_H-M_alt    "P 1"
_space_group_IT_number       1

loop_
  _space_group_symop_operation_xyz
  'x, y, z'

loop_
  _atom_site_type_symbol
  _atom_site_label
  _atom_site_symmetry_multiplicity
  _atom_site_fract_x
  _atom_site_fract_y
  _atom_site_fract_z
  _atom_site_occupancy
  Zr  Zr1       1.0  0.7262895670339369  0.339887128665584  0.09971573982848536  1.0000
  Zr  Zr2       1.0  0.7232526544395732  0.5824002088847533  0.6209023642710498  1.0000
  Zr  Zr3       1.0  0.8666565220370933  0.1987972091698511  0.8076404161548787  1.0000
  Zr  Zr4       1.0  7.520801310434422e-05  0.8627863881526014  0.42267585969557153  1.0000
  Zr  Zr5       1.0  0.929440434509468  0.08539157528667574  0.7757472026706669  1.0000
  Zr  Zr6       1.0  0.5673829233089598  0.27221685488444436  0.2668149516936058  1.0000
  O   O1        1.0  0.23310900978611127  0.7233785447953816  0.5217760717894535  1.0000
  O   O2        1.0  0.6307899039708271  0.15790325599946087  0.7846979699114416  1.0000
