data_image0
_chemical_formula_structural       LiO8
_chemical_formula_sum              "Li1 O8"
_cell_length_a       5.249754507535302
_cell_length_b       5.413199314268996
_cell_length_c       5.41221408469246
_cell_angle_alpha    66.06793548132961
_cell_angle_beta     55.04984107024682
_cell_angle_gamma    55.053804050826955

_space_group_name_H-M_alt    "P 1"
_space_group_IT_number       1

loop_
  _space_group_symop_operation_xyz
  'x, y, z'

loop_
  _atom_site_type_symbol
  _atom_site_label
  _atom_site_symmetry_multiplicity
  _atom_site_fract_x
  _atom_site_fract_y
  _atom_site_fract_z
  _atom_site_occupancy
  Li  Li1       1.0  0.08961238785450121  0.9949343599121843  0.39290067614638247  1.0000
  O   O1        1.0  0.552630930387707  0.32570741584749285  0.7133300152612385  1.0000
  O   O2        1.0  0.20431601512779607  0.39796385032131987  0.04103763504707203  1.0000
  O   O3        1.0  0.1962855857085941  0.9055202441997743  0.7586716242321572  1.0000
  O   O4        1.0  0.6456477182971554  0.1585369484701289  0.7706582398250816  1.0000
  O   O5        1.0  0.08152015189944706  0.9487284741105739  0.8520536668917806  1.0000
  O   O6        1.0  0.5996391815491773  0.13184733821908168  0.7322841275901588  1.0000
  O   O7        1.0  0.003140557941332389  0.6429869896293781  0.6466214061390865  1.0000
  O   O8        1.0  0.4286186499615936  0.7973826831962647  0.6317192707888886  1.0000
