data_image0
_chemical_formula_structural       LiO8
_chemical_formula_sum              "Li1 O8"
_cell_length_a       5.249754507535302
_cell_length_b       5.413199314268996
_cell_length_c       5.41221408469246
_cell_angle_alpha    66.06793548132961
_cell_angle_beta     55.04984107024682
_cell_angle_gamma    55.053804050826955

_space_group_name_H-M_alt    "P 1"
_space_group_IT_number       1

loop_
  _space_group_symop_operation_xyz
  'x, y, z'

loop_
  _atom_site_type_symbol
  _atom_site_label
  _atom_site_symmetry_multiplicity
  _atom_site_fract_x
  _atom_site_fract_y
  _atom_site_fract_z
  _atom_site_occupancy
  Li  Li1       1.0  0.3256418621790118  0.14749994698927793  0.7607416518279209  1.0000
  O   O1        1.0  0.652942577593091  0.39544659142135075  0.08548438434764094  1.0000
  O   O2        1.0  0.37008805910980797  0.8406449260550763  0.6063100608354794  1.0000
  O   O3        1.0  0.9656673359985675  0.140728423313206  0.11524447353422218  1.0000
  O   O4        1.0  0.5446095548233671  0.31431496332937314  0.6798974095727424  1.0000
  O   O5        1.0  0.9924383742795353  0.0919255712722915  0.696826234439115  1.0000
  O   O6        1.0  0.26322604972812513  0.2593614918278746  0.44031931556176573  1.0000
  O   O7        1.0  0.37033552083848065  0.577678370153766  0.7086856620469035  1.0000
  O   O8        1.0  0.043080200916985945  0.794219014047048  0.652190678223139  1.0000
