data_image0
_chemical_formula_structural       LiO8
_chemical_formula_sum              "Li1 O8"
_cell_length_a       5.249754507535302
_cell_length_b       5.413199314268996
_cell_length_c       5.41221408469246
_cell_angle_alpha    66.06793548132961
_cell_angle_beta     55.04984107024682
_cell_angle_gamma    55.053804050826955

_space_group_name_H-M_alt    "P 1"
_space_group_IT_number       1

loop_
  _space_group_symop_operation_xyz
  'x, y, z'

loop_
  _atom_site_type_symbol
  _atom_site_label
  _atom_site_symmetry_multiplicity
  _atom_site_fract_x
  _atom_site_fract_y
  _atom_site_fract_z
  _atom_site_occupancy
  Li  Li1       1.0  0.22379510917889434  0.8587899895079403  0.7056001026787229  1.0000
  O   O1        1.0  0.9359473182790978  0.860005426563724  0.8325254590020137  1.0000
  O   O2        1.0  0.612067707941204  0.23666409004356836  0.2503204142434612  1.0000
  O   O3        1.0  0.06431733860235767  0.010756781859885933  0.9662141357952692  1.0000
  O   O4        1.0  0.7857888025087689  0.9914778383080378  0.2021194971548539  1.0000
  O   O5        1.0  0.2801783254846555  0.2154572394819958  0.3340800024664361  1.0000
  O   O6        1.0  0.4256665240668882  0.6677023884204445  0.666906339187733  1.0000
  O   O7        1.0  0.930413690411477  0.5014653207132982  0.13509671729254258  1.0000
  O   O8        1.0  0.5017741670295486  0.3376276861865719  0.9015636062028245  1.0000
