data_image0
_chemical_formula_structural       LiO8
_chemical_formula_sum              "Li1 O8"
_cell_length_a       5.249754507535302
_cell_length_b       5.413199314268996
_cell_length_c       5.41221408469246
_cell_angle_alpha    66.06793548132961
_cell_angle_beta     55.04984107024682
_cell_angle_gamma    55.053804050826955

_space_group_name_H-M_alt    "P 1"
_space_group_IT_number       1

loop_
  _space_group_symop_operation_xyz
  'x, y, z'

loop_
  _atom_site_type_symbol
  _atom_site_label
  _atom_site_symmetry_multiplicity
  _atom_site_fract_x
  _atom_site_fract_y
  _atom_site_fract_z
  _atom_site_occupancy
  Li  Li1       1.0  0.051379507898531074  0.4330569660876371  0.5539149302453552  1.0000
  O   O1        1.0  0.6471262451352757  0.26288541856719405  0.3659783154848437  1.0000
  O   O2        1.0  0.4979486437999676  0.7339675939040582  0.5421586768769942  1.0000
  O   O3        1.0  0.7468837531837949  0.3590996173174048  0.10540818651029582  1.0000
  O   O4        1.0  0.681240090144783  0.41138061874835685  0.8081823186317223  1.0000
  O   O5        1.0  0.9061370015089523  0.07293446291568983  0.483468029945076  1.0000
  O   O6        1.0  0.9742607550862328  0.1007664541014961  0.5867148333658463  1.0000
  O   O7        1.0  0.17175651245505463  0.47044090755578516  0.28208086701697965  1.0000
  O   O8        1.0  0.16363087609433968  0.23527650688558222  0.17586541545903955  1.0000
