data_image0
_chemical_formula_structural       LiO8
_chemical_formula_sum              "Li1 O8"
_cell_length_a       5.249754507535302
_cell_length_b       5.413199314268996
_cell_length_c       5.41221408469246
_cell_angle_alpha    66.06793548132961
_cell_angle_beta     55.04984107024682
_cell_angle_gamma    55.053804050826955

_space_group_name_H-M_alt    "P 1"
_space_group_IT_number       1

loop_
  _space_group_symop_operation_xyz
  'x, y, z'

loop_
  _atom_site_type_symbol
  _atom_site_label
  _atom_site_symmetry_multiplicity
  _atom_site_fract_x
  _atom_site_fract_y
  _atom_site_fract_z
  _atom_site_occupancy
  Li  Li1       1.0  0.8095050216786319  0.9250355574277229  0.30103547097294836  1.0000
  O   O1        1.0  0.5014689648565849  0.9731373261661105  0.42337274159480387  1.0000
  O   O2        1.0  0.2471139625788492  0.5378818123983198  0.7424780794850463  1.0000
  O   O3        1.0  0.6391659486774515  0.9916467374957847  0.12160208509123294  1.0000
  O   O4        1.0  0.468798626528967  0.3146610925208755  0.9071406342816033  1.0000
  O   O5        1.0  0.8963824331727608  0.4393073968606416  0.0026399615291694545  1.0000
  O   O6        1.0  0.7579154696814463  0.685929883836824  0.14950485213515918  1.0000
  O   O7        1.0  0.3248947222561682  0.30692552772059756  0.4623402867926103  1.0000
  O   O8        1.0  0.1297990885142588  0.9059639936496087  0.35230341775083573  1.0000
