data_image0
_chemical_formula_structural       LiO8
_chemical_formula_sum              "Li1 O8"
_cell_length_a       5.249754507535302
_cell_length_b       5.413199314268996
_cell_length_c       5.41221408469246
_cell_angle_alpha    66.06793548132961
_cell_angle_beta     55.04984107024682
_cell_angle_gamma    55.053804050826955

_space_group_name_H-M_alt    "P 1"
_space_group_IT_number       1

loop_
  _space_group_symop_operation_xyz
  'x, y, z'

loop_
  _atom_site_type_symbol
  _atom_site_label
  _atom_site_symmetry_multiplicity
  _atom_site_fract_x
  _atom_site_fract_y
  _atom_site_fract_z
  _atom_site_occupancy
  Li  Li1       1.0  0.4947860973284399  0.7280625230032456  0.8249678530620095  1.0000
  O   O1        1.0  0.8113383297498729  0.15626812240212828  0.650226063364661  1.0000
  O   O2        1.0  0.4392961552772334  0.41686666792800153  0.6927340088515024  1.0000
  O   O3        1.0  0.9234026659671315  0.2280634940937034  0.5409101155507621  1.0000
  O   O4        1.0  0.06194908516173925  0.3586900038522298  0.8317842957305892  1.0000
  O   O5        1.0  0.18415984139205221  0.03657829137292978  0.6992999228893311  1.0000
  O   O6        1.0  0.45775843463814425  0.2925211619280397  0.2758357566151233  1.0000
  O   O7        1.0  0.9759237954778754  0.04948353652624604  0.22360541683454294  1.0000
  O   O8        1.0  0.9668476338042851  0.5231317801212114  0.8745135090889313  1.0000
