data_image0
_chemical_formula_structural       LiO8
_chemical_formula_sum              "Li1 O8"
_cell_length_a       5.249754507535302
_cell_length_b       5.413199314268996
_cell_length_c       5.41221408469246
_cell_angle_alpha    66.06793548132961
_cell_angle_beta     55.04984107024682
_cell_angle_gamma    55.053804050826955

_space_group_name_H-M_alt    "P 1"
_space_group_IT_number       1

loop_
  _space_group_symop_operation_xyz
  'x, y, z'

loop_
  _atom_site_type_symbol
  _atom_site_label
  _atom_site_symmetry_multiplicity
  _atom_site_fract_x
  _atom_site_fract_y
  _atom_site_fract_z
  _atom_site_occupancy
  Li  Li1       1.0  0.07412382707797605  0.866446929287946  0.3020727982418201  1.0000
  O   O1        1.0  0.22600374480895624  0.8391435410165933  0.3137937355275362  1.0000
  O   O2        1.0  0.9878694263128323  0.5647152930076977  0.22384562575535583  1.0000
  O   O3        1.0  0.772342329992945  0.39381439720873956  0.1720371958895015  1.0000
  O   O4        1.0  0.475903433411041  0.010061769748823224  0.15253242277500334  1.0000
  O   O5        1.0  0.1776038319634594  0.4213847428687387  0.5877918478132749  1.0000
  O   O6        1.0  0.6452082397695094  0.8046272785564206  0.5334522025900235  1.0000
  O   O7        1.0  0.4378424537613057  0.12266006252317396  0.3005007249225855  1.0000
  O   O8        1.0  0.7200993087220295  0.24897421369282924  0.5002186621527738  1.0000
