data_image0
_chemical_formula_structural       LiO8
_chemical_formula_sum              "Li1 O8"
_cell_length_a       5.249754507535302
_cell_length_b       5.413199314268996
_cell_length_c       5.41221408469246
_cell_angle_alpha    66.06793548132961
_cell_angle_beta     55.04984107024682
_cell_angle_gamma    55.053804050826955

_space_group_name_H-M_alt    "P 1"
_space_group_IT_number       1

loop_
  _space_group_symop_operation_xyz
  'x, y, z'

loop_
  _atom_site_type_symbol
  _atom_site_label
  _atom_site_symmetry_multiplicity
  _atom_site_fract_x
  _atom_site_fract_y
  _atom_site_fract_z
  _atom_site_occupancy
  Li  Li1       1.0  0.24635334225895011  0.5218382348132025  0.055943723713760996  1.0000
  O   O1        1.0  0.08514738851373949  0.39132703538651725  0.8397945343177602  1.0000
  O   O2        1.0  0.053268535404075834  0.097858495922031  0.6056701136288041  1.0000
  O   O3        1.0  0.9498678197170776  0.051999912895034583  0.8243431269500672  1.0000
  O   O4        1.0  0.7180856234793929  0.6733521287060711  0.6943838972194705  1.0000
  O   O5        1.0  0.8209645703243211  0.08148521384785479  0.43912447190327697  1.0000
  O   O6        1.0  0.8763837176561324  0.8075122959460934  0.06310106518353109  1.0000
  O   O7        1.0  0.4380754832946394  0.910648062613916  0.81025608973329  1.0000
  O   O8        1.0  0.2792649670462417  0.7927823915149261  0.23548187477698246  1.0000
