data_image0
_chemical_formula_structural       LiO8
_chemical_formula_sum              "Li1 O8"
_cell_length_a       5.249754507535302
_cell_length_b       5.413199314268996
_cell_length_c       5.41221408469246
_cell_angle_alpha    66.06793548132961
_cell_angle_beta     55.04984107024682
_cell_angle_gamma    55.053804050826955

_space_group_name_H-M_alt    "P 1"
_space_group_IT_number       1

loop_
  _space_group_symop_operation_xyz
  'x, y, z'

loop_
  _atom_site_type_symbol
  _atom_site_label
  _atom_site_symmetry_multiplicity
  _atom_site_fract_x
  _atom_site_fract_y
  _atom_site_fract_z
  _atom_site_occupancy
  Li  Li1       1.0  0.8780809961406728  0.8920983437670493  0.7359225780632981  1.0000
  O   O1        1.0  0.8677322204184836  0.7592014576168467  0.7851935963422778  1.0000
  O   O2        1.0  0.09473642653973968  0.4594338958872166  0.8026250470889593  1.0000
  O   O3        1.0  0.22011379747762305  0.9402018160781651  0.16499010335701336  1.0000
  O   O4        1.0  0.7488430706606017  0.08544826968899955  0.7337755442324223  1.0000
  O   O5        1.0  0.6785398336413664  0.956234929335217  0.9111659900237505  1.0000
  O   O6        1.0  0.6645104771392019  0.22510694481553273  0.7818977489531429  1.0000
  O   O7        1.0  0.9626454778148776  0.14608761688097616  0.015897089373112294  1.0000
  O   O8        1.0  0.8085102574166854  0.823161522785611  0.38914882098424464  1.0000
