data_image0
_chemical_formula_structural       LiO8
_chemical_formula_sum              "Li1 O8"
_cell_length_a       5.249754507535302
_cell_length_b       5.413199314268996
_cell_length_c       5.41221408469246
_cell_angle_alpha    66.06793548132961
_cell_angle_beta     55.04984107024682
_cell_angle_gamma    55.053804050826955

_space_group_name_H-M_alt    "P 1"
_space_group_IT_number       1

loop_
  _space_group_symop_operation_xyz
  'x, y, z'

loop_
  _atom_site_type_symbol
  _atom_site_label
  _atom_site_symmetry_multiplicity
  _atom_site_fract_x
  _atom_site_fract_y
  _atom_site_fract_z
  _atom_site_occupancy
  Li  Li1       1.0  0.7445946967269776  0.16520811906764266  0.43594531245831547  1.0000
  O   O1        1.0  0.9110267507451226  0.046464835752930256  0.689085523185625  1.0000
  O   O2        1.0  0.028063932628882536  0.8255483124099641  0.22991105683265545  1.0000
  O   O3        1.0  0.19930070129537825  0.08768554299739004  0.9359688151195229  1.0000
  O   O4        1.0  0.2981734866673946  0.4557682525801354  0.20375456997160768  1.0000
  O   O5        1.0  0.6285081705067483  0.40853890897265543  0.5940264173510741  1.0000
  O   O6        1.0  0.6304506218758341  0.9678878557795727  0.2703073157501841  1.0000
  O   O7        1.0  0.7632267451321624  0.03492057298644724  0.49374759486868314  1.0000
  O   O8        1.0  0.8883002398268331  0.13314328674137954  0.2798761477322991  1.0000
