data_image0
_chemical_formula_structural       LiO8
_chemical_formula_sum              "Li1 O8"
_cell_length_a       5.249754507535302
_cell_length_b       5.413199314268996
_cell_length_c       5.41221408469246
_cell_angle_alpha    66.06793548132961
_cell_angle_beta     55.04984107024682
_cell_angle_gamma    55.053804050826955

_space_group_name_H-M_alt    "P 1"
_space_group_IT_number       1

loop_
  _space_group_symop_operation_xyz
  'x, y, z'

loop_
  _atom_site_type_symbol
  _atom_site_label
  _atom_site_symmetry_multiplicity
  _atom_site_fract_x
  _atom_site_fract_y
  _atom_site_fract_z
  _atom_site_occupancy
  Li  Li1       1.0  0.9358091304185905  0.2327094317082441  0.4332958630795787  1.0000
  O   O1        1.0  0.9751474707801719  0.9210404759234088  0.24594040182161692  1.0000
  O   O2        1.0  0.1986084925158984  0.7402238562774848  0.8128536096759404  1.0000
  O   O3        1.0  0.21934977317863513  0.10387532039656122  0.13831849721725575  1.0000
  O   O4        1.0  0.8176015190886545  0.7969180957500086  0.5510389342299504  1.0000
  O   O5        1.0  0.2586198457299673  0.0821158314061563  0.02597254624773626  1.0000
  O   O6        1.0  0.6585575848211433  0.21761018777084473  0.6287570503704387  1.0000
  O   O7        1.0  0.4980013088456552  0.11970299784165395  0.37476673608598965  1.0000
  O   O8        1.0  0.08285274338979498  0.9075831157170029  0.5287961425806529  1.0000
