data_image0
_chemical_formula_structural       LiO8
_chemical_formula_sum              "Li1 O8"
_cell_length_a       5.249754507535302
_cell_length_b       5.413199314268996
_cell_length_c       5.41221408469246
_cell_angle_alpha    66.06793548132961
_cell_angle_beta     55.04984107024682
_cell_angle_gamma    55.053804050826955

_space_group_name_H-M_alt    "P 1"
_space_group_IT_number       1

loop_
  _space_group_symop_operation_xyz
  'x, y, z'

loop_
  _atom_site_type_symbol
  _atom_site_label
  _atom_site_symmetry_multiplicity
  _atom_site_fract_x
  _atom_site_fract_y
  _atom_site_fract_z
  _atom_site_occupancy
  Li  Li1       1.0  0.6564628820704996  0.9652300548997488  0.30935769448228  1.0000
  O   O1        1.0  0.5460964030799929  0.2628416964271807  0.29929536325080974  1.0000
  O   O2        1.0  0.7396845845558795  0.3492383177265954  0.8358629487555795  1.0000
  O   O3        1.0  0.7636395141195322  0.015353664644067067  0.379089282177258  1.0000
  O   O4        1.0  0.9338672924550124  0.5752302762592763  0.4830452621421273  1.0000
  O   O5        1.0  0.3512794723157704  0.1823230384952108  0.6370498105180822  1.0000
  O   O6        1.0  0.934986006517871  0.09083156657897362  0.040989976399526284  1.0000
  O   O7        1.0  0.03392867340002681  0.41694934126734395  0.7189866065710362  1.0000
  O   O8        1.0  0.3820359295820879  0.6153393921923005  0.2216659499929463  1.0000
