data_image0
_chemical_formula_structural       LiO8
_chemical_formula_sum              "Li1 O8"
_cell_length_a       5.249754507535302
_cell_length_b       5.413199314268996
_cell_length_c       5.41221408469246
_cell_angle_alpha    66.06793548132961
_cell_angle_beta     55.04984107024682
_cell_angle_gamma    55.053804050826955

_space_group_name_H-M_alt    "P 1"
_space_group_IT_number       1

loop_
  _space_group_symop_operation_xyz
  'x, y, z'

loop_
  _atom_site_type_symbol
  _atom_site_label
  _atom_site_symmetry_multiplicity
  _atom_site_fract_x
  _atom_site_fract_y
  _atom_site_fract_z
  _atom_site_occupancy
  Li  Li1       1.0  0.07047415990274253  0.8847080241758682  0.3892871526553108  1.0000
  O   O1        1.0  0.8407508592031121  0.3831565408553761  0.1854145398587228  1.0000
  O   O2        1.0  0.6163740478109219  0.7256983020163439  0.33877728435045285  1.0000
  O   O3        1.0  0.5751995114983259  0.8305635817989199  0.6631672495720409  1.0000
  O   O4        1.0  0.08712857791190487  0.7736902338124363  0.7275771088980498  1.0000
  O   O5        1.0  0.7151955578851563  0.7836378703878246  0.2448529535970323  1.0000
  O   O6        1.0  0.739262803468888  0.09686743734905079  0.4198123570752288  1.0000
  O   O7        1.0  0.6399708940885311  0.20753962458548258  0.9294373973965833  1.0000
  O   O8        1.0  0.7946590371728064  0.6692752763927103  0.12544492204379765  1.0000
