data_image0
_chemical_formula_structural       LiO8
_chemical_formula_sum              "Li1 O8"
_cell_length_a       5.249754507535302
_cell_length_b       5.413199314268996
_cell_length_c       5.41221408469246
_cell_angle_alpha    66.06793548132961
_cell_angle_beta     55.04984107024682
_cell_angle_gamma    55.053804050826955

_space_group_name_H-M_alt    "P 1"
_space_group_IT_number       1

loop_
  _space_group_symop_operation_xyz
  'x, y, z'

loop_
  _atom_site_type_symbol
  _atom_site_label
  _atom_site_symmetry_multiplicity
  _atom_site_fract_x
  _atom_site_fract_y
  _atom_site_fract_z
  _atom_site_occupancy
  Li  Li1       1.0  0.5917899449115325  0.3713240368141797  0.9018887302097767  1.0000
  O   O1        1.0  0.13926635757790784  0.5691234902719708  0.7481885101648054  1.0000
  O   O2        1.0  0.19158286127135327  0.19783566847341483  0.1504205329393713  1.0000
  O   O3        1.0  0.8043244644440932  0.9157331742256787  0.6242338011520019  1.0000
  O   O4        1.0  0.04010248947824735  0.7205777027287503  0.30348575210611983  1.0000
  O   O5        1.0  0.5141993061864762  0.7068346029993648  0.6231136798273216  1.0000
  O   O6        1.0  0.8588466177456784  0.41483580254863917  0.9663684749736419  1.0000
  O   O7        1.0  0.4885674639122328  0.1392663383312609  0.6287977358295791  1.0000
  O   O8        1.0  0.14882105162973147  0.8904695342719577  0.08236687184916036  1.0000
