data_image0
_chemical_formula_structural       LiO8
_chemical_formula_sum              "Li1 O8"
_cell_length_a       5.249754507535302
_cell_length_b       5.413199314268996
_cell_length_c       5.41221408469246
_cell_angle_alpha    66.06793548132961
_cell_angle_beta     55.04984107024682
_cell_angle_gamma    55.053804050826955

_space_group_name_H-M_alt    "P 1"
_space_group_IT_number       1

loop_
  _space_group_symop_operation_xyz
  'x, y, z'

loop_
  _atom_site_type_symbol
  _atom_site_label
  _atom_site_symmetry_multiplicity
  _atom_site_fract_x
  _atom_site_fract_y
  _atom_site_fract_z
  _atom_site_occupancy
  Li  Li1       1.0  0.06531841454699361  0.415706240888845  0.6905950461010733  1.0000
  O   O1        1.0  0.567329032794909  0.1276701268538929  0.14939299229776992  1.0000
  O   O2        1.0  0.9646805685368531  0.29186857235110253  0.6798133503157118  1.0000
  O   O3        1.0  0.9663875909459136  0.6162577197308678  0.5104536400543367  1.0000
  O   O4        1.0  0.8008167670123996  0.028465974940139915  0.9960787843259311  1.0000
  O   O5        1.0  0.6866550401892226  0.6785666347624897  0.4204634030974148  1.0000
  O   O6        1.0  0.4716658941887424  0.6707747317288337  0.7163972344856901  1.0000
  O   O7        1.0  0.2994187984470926  0.5081436052069801  0.830695380400023  1.0000
  O   O8        1.0  0.2277907337356142  0.29681796378222103  0.6754032721628782  1.0000
