data_image0
_chemical_formula_structural       LiO8
_chemical_formula_sum              "Li1 O8"
_cell_length_a       5.249754507535302
_cell_length_b       5.413199314268996
_cell_length_c       5.41221408469246
_cell_angle_alpha    66.06793548132961
_cell_angle_beta     55.04984107024682
_cell_angle_gamma    55.053804050826955

_space_group_name_H-M_alt    "P 1"
_space_group_IT_number       1

loop_
  _space_group_symop_operation_xyz
  'x, y, z'

loop_
  _atom_site_type_symbol
  _atom_site_label
  _atom_site_symmetry_multiplicity
  _atom_site_fract_x
  _atom_site_fract_y
  _atom_site_fract_z
  _atom_site_occupancy
  Li  Li1       1.0  0.03091879338431469  0.7068721415004084  0.3059535188553979  1.0000
  O   O1        1.0  0.7920266806928948  0.7194133764937725  0.8860397878307849  1.0000
  O   O2        1.0  0.10310226609362871  0.7947497560622239  0.1502829659515168  1.0000
  O   O3        1.0  0.48721299176527566  0.9271428236002279  0.5369649918197261  1.0000
  O   O4        1.0  0.5711228071281695  0.18707140544151102  0.5289822960781745  1.0000
  O   O5        1.0  0.4797523563591639  0.3011709506082223  0.858643027602664  1.0000
  O   O6        1.0  0.666452294709595  0.2406965076744889  0.8464448270806724  1.0000
  O   O7        1.0  0.934076169376894  0.3825607276834617  0.7129665744710483  1.0000
  O   O8        1.0  0.8610142213546048  0.15074965325635503  0.30339576573210447  1.0000
