data_image0
_chemical_formula_structural       LiO8
_chemical_formula_sum              "Li1 O8"
_cell_length_a       5.249754507535302
_cell_length_b       5.413199314268996
_cell_length_c       5.41221408469246
_cell_angle_alpha    66.06793548132961
_cell_angle_beta     55.04984107024682
_cell_angle_gamma    55.053804050826955

_space_group_name_H-M_alt    "P 1"
_space_group_IT_number       1

loop_
  _space_group_symop_operation_xyz
  'x, y, z'

loop_
  _atom_site_type_symbol
  _atom_site_label
  _atom_site_symmetry_multiplicity
  _atom_site_fract_x
  _atom_site_fract_y
  _atom_site_fract_z
  _atom_site_occupancy
  Li  Li1       1.0  0.25393135937212463  0.6879781865269656  0.18682772623940247  1.0000
  O   O1        1.0  0.22080585228197602  0.33233873306734196  0.409298350617064  1.0000
  O   O2        1.0  0.5652042972589371  0.2277584801014143  0.44490002589802913  1.0000
  O   O3        1.0  0.3018358636700498  0.19501571193460165  0.9510932969616945  1.0000
  O   O4        1.0  0.8731777507131646  0.5640691075464419  0.5491476473845509  1.0000
  O   O5        1.0  0.27139983788897126  0.855769915148958  0.059842857700914465  1.0000
  O   O6        1.0  0.05494378053456295  0.6058829267620958  0.5590885529682594  1.0000
  O   O7        1.0  0.04452878527116155  0.39756597193695065  0.7310560801953372  1.0000
  O   O8        1.0  0.8953528625966101  0.7979484151272658  0.16530127889379287  1.0000
