data_image0
_chemical_formula_structural       LiO8
_chemical_formula_sum              "Li1 O8"
_cell_length_a       5.249754507535302
_cell_length_b       5.413199314268996
_cell_length_c       5.41221408469246
_cell_angle_alpha    66.06793548132961
_cell_angle_beta     55.04984107024682
_cell_angle_gamma    55.053804050826955

_space_group_name_H-M_alt    "P 1"
_space_group_IT_number       1

loop_
  _space_group_symop_operation_xyz
  'x, y, z'

loop_
  _atom_site_type_symbol
  _atom_site_label
  _atom_site_symmetry_multiplicity
  _atom_site_fract_x
  _atom_site_fract_y
  _atom_site_fract_z
  _atom_site_occupancy
  Li  Li1       1.0  0.12785025176850695  0.46861330452366445  0.2620405359881559  1.0000
  O   O1        1.0  0.020419188079664252  0.5900871558990914  0.8537957889722918  1.0000
  O   O2        1.0  0.8096005654237644  0.279711091441861  0.9775114820250721  1.0000
  O   O3        1.0  0.6583345106310645  0.9507635917694799  0.3270934134418795  1.0000
  O   O4        1.0  0.753176386071587  0.30568725071521463  0.7485253699354573  1.0000
  O   O5        1.0  0.20582915254880163  0.2369689949725  0.6419672114636512  1.0000
  O   O6        1.0  0.3683852153870511  0.21389788676697208  0.5096291746322842  1.0000
  O   O7        1.0  0.05455287342003601  0.13318849512716538  0.3774252383014769  1.0000
  O   O8        1.0  0.06884516348171577  0.13661994919370812  0.3568155546454794  1.0000
