data_image0
_chemical_formula_structural       LiO8
_chemical_formula_sum              "Li1 O8"
_cell_length_a       5.249754507535302
_cell_length_b       5.413199314268996
_cell_length_c       5.41221408469246
_cell_angle_alpha    66.06793548132961
_cell_angle_beta     55.04984107024682
_cell_angle_gamma    55.053804050826955

_space_group_name_H-M_alt    "P 1"
_space_group_IT_number       1

loop_
  _space_group_symop_operation_xyz
  'x, y, z'

loop_
  _atom_site_type_symbol
  _atom_site_label
  _atom_site_symmetry_multiplicity
  _atom_site_fract_x
  _atom_site_fract_y
  _atom_site_fract_z
  _atom_site_occupancy
  Li  Li1       1.0  0.28451166876631895  0.23278611001074268  0.8832852489706329  1.0000
  O   O1        1.0  0.45805632625094717  0.4482657780433854  0.538224267291838  1.0000
  O   O2        1.0  0.34776178724938234  0.05821115748822825  0.012792062511241653  1.0000
  O   O3        1.0  0.7663690413652802  0.8471592992836392  0.968797769214305  1.0000
  O   O4        1.0  0.6820795880695023  0.9646141738547556  0.08319859290847731  1.0000
  O   O5        1.0  0.010665589711187806  0.03275373961040895  0.25382148448372277  1.0000
  O   O6        1.0  0.3439386780083389  0.016927280902027775  0.405197958194747  1.0000
  O   O7        1.0  0.33355563191891235  0.5204023016377235  0.7051143627088088  1.0000
  O   O8        1.0  0.12800932938384335  0.87412892471486  0.5897986419998489  1.0000
