data_image0
_chemical_formula_structural       LiO8
_chemical_formula_sum              "Li1 O8"
_cell_length_a       5.249754507535302
_cell_length_b       5.413199314268996
_cell_length_c       5.41221408469246
_cell_angle_alpha    66.06793548132961
_cell_angle_beta     55.04984107024682
_cell_angle_gamma    55.053804050826955

_space_group_name_H-M_alt    "P 1"
_space_group_IT_number       1

loop_
  _space_group_symop_operation_xyz
  'x, y, z'

loop_
  _atom_site_type_symbol
  _atom_site_label
  _atom_site_symmetry_multiplicity
  _atom_site_fract_x
  _atom_site_fract_y
  _atom_site_fract_z
  _atom_site_occupancy
  Li  Li1       1.0  0.7475494987373708  0.6321957354799039  0.7977563057873169  1.0000
  O   O1        1.0  0.1495147378603363  0.540171735929249  0.48266609539217153  1.0000
  O   O2        1.0  0.07230984828632803  0.8098421189123355  0.23968921432956236  1.0000
  O   O3        1.0  0.6809829070152063  0.7266790652090691  0.1734379356884972  1.0000
  O   O4        1.0  0.20017313678948057  0.8533138377593943  0.5569474953490499  1.0000
  O   O5        1.0  0.34224610397018296  0.2030276253265022  0.2537683544674749  1.0000
  O   O6        1.0  0.14534679553711616  0.812894276160911  0.37798581601705905  1.0000
  O   O7        1.0  0.9111779227502268  0.13119048876551753  0.12885312151845696  1.0000
  O   O8        1.0  0.9583985754346855  0.9438639666547326  0.3386938923603411  1.0000
