data_image0
_chemical_formula_structural       LiO8
_chemical_formula_sum              "Li1 O8"
_cell_length_a       5.249754507535302
_cell_length_b       5.413199314268996
_cell_length_c       5.41221408469246
_cell_angle_alpha    66.06793548132961
_cell_angle_beta     55.04984107024682
_cell_angle_gamma    55.053804050826955

_space_group_name_H-M_alt    "P 1"
_space_group_IT_number       1

loop_
  _space_group_symop_operation_xyz
  'x, y, z'

loop_
  _atom_site_type_symbol
  _atom_site_label
  _atom_site_symmetry_multiplicity
  _atom_site_fract_x
  _atom_site_fract_y
  _atom_site_fract_z
  _atom_site_occupancy
  Li  Li1       1.0  0.6308487905820925  0.4392203867198603  0.9501920044236556  1.0000
  O   O1        1.0  0.2134835449268877  0.2553958555811988  0.28618621358252305  1.0000
  O   O2        1.0  0.9592639998757772  0.17241999278044662  0.8824397704844102  1.0000
  O   O3        1.0  0.1301044141312957  0.8490221975115411  0.8618462078909559  1.0000
  O   O4        1.0  0.5824331713232738  0.5571216894321509  0.972698417144656  1.0000
  O   O5        1.0  0.6144933285752217  0.02426369687688279  0.699292500142846  1.0000
  O   O6        1.0  0.023167276908522716  0.29946486154580043  0.03933436036607674  1.0000
  O   O7        1.0  0.9091043663053995  0.6228645424854142  0.9322903617161522  1.0000
  O   O8        1.0  0.7517034502440065  0.17775417148277572  0.1354602427951812  1.0000
