data_image0
_chemical_formula_structural       LiO8
_chemical_formula_sum              "Li1 O8"
_cell_length_a       5.249754507535302
_cell_length_b       5.413199314268996
_cell_length_c       5.41221408469246
_cell_angle_alpha    66.06793548132961
_cell_angle_beta     55.04984107024682
_cell_angle_gamma    55.053804050826955

_space_group_name_H-M_alt    "P 1"
_space_group_IT_number       1

loop_
  _space_group_symop_operation_xyz
  'x, y, z'

loop_
  _atom_site_type_symbol
  _atom_site_label
  _atom_site_symmetry_multiplicity
  _atom_site_fract_x
  _atom_site_fract_y
  _atom_site_fract_z
  _atom_site_occupancy
  Li  Li1       1.0  0.49901022704231934  0.8321710097554522  0.8574939540920639  1.0000
  O   O1        1.0  0.6735713195819357  0.019732446801294046  0.5673346070173189  1.0000
  O   O2        1.0  0.24939199303920034  0.4513290076483685  0.7227082299358898  1.0000
  O   O3        1.0  0.07364662042371606  0.42094240591108445  0.38156489554896655  1.0000
  O   O4        1.0  0.883361931052395  0.8097113064164869  0.6699521763056175  1.0000
  O   O5        1.0  0.3971366686352793  0.7022594714105352  0.8061054916486086  1.0000
  O   O6        1.0  0.47651372569372263  0.9055408096413318  0.42363404020101214  1.0000
  O   O7        1.0  0.4563392268245039  0.2558087213105864  0.46465722689551114  1.0000
  O   O8        1.0  0.14017025646458237  0.7649727944879983  0.7709081828345177  1.0000
