data_image0
_chemical_formula_structural       LiO8
_chemical_formula_sum              "Li1 O8"
_cell_length_a       5.249754507535302
_cell_length_b       5.413199314268996
_cell_length_c       5.41221408469246
_cell_angle_alpha    66.06793548132961
_cell_angle_beta     55.04984107024682
_cell_angle_gamma    55.053804050826955

_space_group_name_H-M_alt    "P 1"
_space_group_IT_number       1

loop_
  _space_group_symop_operation_xyz
  'x, y, z'

loop_
  _atom_site_type_symbol
  _atom_site_label
  _atom_site_symmetry_multiplicity
  _atom_site_fract_x
  _atom_site_fract_y
  _atom_site_fract_z
  _atom_site_occupancy
  Li  Li1       1.0  0.3459579081055111  0.9660207136561887  0.11720535737331517  1.0000
  O   O1        1.0  0.060729668799737624  0.27087047003446685  0.13772612712607213  1.0000
  O   O2        1.0  0.07767637290925933  0.8397453991775983  0.9209087033970356  1.0000
  O   O3        1.0  0.3219959109339783  0.45559449279849673  0.01887987703213767  1.0000
  O   O4        1.0  0.4223853140981557  0.3733160402950979  0.26842273015585594  1.0000
  O   O5        1.0  0.8517581743604552  0.07440445247293859  0.004671256603305807  1.0000
  O   O6        1.0  0.4615289889510681  0.8468694089035367  0.8934223420762004  1.0000
  O   O7        1.0  0.998108109378748  0.06398815116996204  0.04365731668276851  1.0000
  O   O8        1.0  0.21189069797420323  0.3482789835580524  0.8629970968821006  1.0000
