data_image0
_chemical_formula_structural       LiO8
_chemical_formula_sum              "Li1 O8"
_cell_length_a       5.249754507535302
_cell_length_b       5.413199314268996
_cell_length_c       5.41221408469246
_cell_angle_alpha    66.06793548132961
_cell_angle_beta     55.04984107024682
_cell_angle_gamma    55.053804050826955

_space_group_name_H-M_alt    "P 1"
_space_group_IT_number       1

loop_
  _space_group_symop_operation_xyz
  'x, y, z'

loop_
  _atom_site_type_symbol
  _atom_site_label
  _atom_site_symmetry_multiplicity
  _atom_site_fract_x
  _atom_site_fract_y
  _atom_site_fract_z
  _atom_site_occupancy
  Li  Li1       1.0  0.5412071061458619  0.8542088529346188  0.8255825576652001  1.0000
  O   O1        1.0  0.48759271570822804  0.021517111473828177  0.302995646457191  1.0000
  O   O2        1.0  0.606757689253012  0.28344293403423393  0.07630208092211177  1.0000
  O   O3        1.0  0.1730987128710595  0.5491731807772222  0.9280706691017961  1.0000
  O   O4        1.0  0.29107405201052217  0.3694425711204268  0.6958126832832079  1.0000
  O   O5        1.0  0.4040276882144127  0.006714804160818488  0.013713636686048858  1.0000
  O   O6        1.0  0.12520152201412849  0.4951183590031576  0.5174977499555169  1.0000
  O   O7        1.0  0.402573731184936  0.25557059521647574  0.34747142146427734  1.0000
  O   O8        1.0  0.5888546556402119  0.8647708639525717  0.18831401290419425  1.0000
