data_image0
_chemical_formula_structural       LiO8
_chemical_formula_sum              "Li1 O8"
_cell_length_a       5.249754507535302
_cell_length_b       5.413199314268996
_cell_length_c       5.41221408469246
_cell_angle_alpha    66.06793548132961
_cell_angle_beta     55.04984107024682
_cell_angle_gamma    55.053804050826955

_space_group_name_H-M_alt    "P 1"
_space_group_IT_number       1

loop_
  _space_group_symop_operation_xyz
  'x, y, z'

loop_
  _atom_site_type_symbol
  _atom_site_label
  _atom_site_symmetry_multiplicity
  _atom_site_fract_x
  _atom_site_fract_y
  _atom_site_fract_z
  _atom_site_occupancy
  Li  Li1       1.0  0.028750677478299735  0.1154948189103635  0.4221696402779358  1.0000
  O   O1        1.0  0.35424790763883607  0.6573014003958235  0.26920359073702205  1.0000
  O   O2        1.0  0.45170922174878037  0.5774090965028744  0.9802345982984022  1.0000
  O   O3        1.0  0.7338773669002876  0.26125984833181803  0.7782923890002564  1.0000
  O   O4        1.0  0.7875334388536857  0.8473305585563544  0.8625106345050568  1.0000
  O   O5        1.0  0.767294320425151  0.2692940564451902  0.9577391236929422  1.0000
  O   O6        1.0  0.701965146985124  0.999655517584447  0.765634697977946  1.0000
  O   O7        1.0  0.35789827006572494  0.35288946112027636  0.41692139704333897  1.0000
  O   O8        1.0  0.10138553089144153  0.5994231092332072  0.6840793511697931  1.0000
