data_image0
_chemical_formula_structural       LiO8
_chemical_formula_sum              "Li1 O8"
_cell_length_a       5.249754507535302
_cell_length_b       5.413199314268996
_cell_length_c       5.41221408469246
_cell_angle_alpha    66.06793548132961
_cell_angle_beta     55.04984107024682
_cell_angle_gamma    55.053804050826955

_space_group_name_H-M_alt    "P 1"
_space_group_IT_number       1

loop_
  _space_group_symop_operation_xyz
  'x, y, z'

loop_
  _atom_site_type_symbol
  _atom_site_label
  _atom_site_symmetry_multiplicity
  _atom_site_fract_x
  _atom_site_fract_y
  _atom_site_fract_z
  _atom_site_occupancy
  Li  Li1       1.0  0.9428925255160152  0.8633736965391972  0.7099983850987535  1.0000
  O   O1        1.0  0.529649078927877  0.09775337202312073  0.11923671503773647  1.0000
  O   O2        1.0  0.4406512221884  0.61189512951659  0.1575956121661619  1.0000
  O   O3        1.0  0.04688831090731327  0.3951026150805319  0.19945369770234578  1.0000
  O   O4        1.0  0.01499867128579524  0.5491886664362031  0.28756278416577885  1.0000
  O   O5        1.0  0.6152836235567758  0.8011630860034025  0.5409108391968367  1.0000
  O   O6        1.0  0.464600108793892  0.1554316217972378  0.4552971268305459  1.0000
  O   O7        1.0  0.8097195667530599  0.5978402336879043  0.05125604849808951  1.0000
  O   O8        1.0  0.514032782205367  0.6098936651231046  0.6109536214940583  1.0000
