data_image0
_chemical_formula_structural       LiO8
_chemical_formula_sum              "Li1 O8"
_cell_length_a       5.249754507535302
_cell_length_b       5.413199314268996
_cell_length_c       5.41221408469246
_cell_angle_alpha    66.06793548132961
_cell_angle_beta     55.04984107024682
_cell_angle_gamma    55.053804050826955

_space_group_name_H-M_alt    "P 1"
_space_group_IT_number       1

loop_
  _space_group_symop_operation_xyz
  'x, y, z'

loop_
  _atom_site_type_symbol
  _atom_site_label
  _atom_site_symmetry_multiplicity
  _atom_site_fract_x
  _atom_site_fract_y
  _atom_site_fract_z
  _atom_site_occupancy
  Li  Li1       1.0  0.2949264232873361  0.7484731981665558  0.3316187507507564  1.0000
  O   O1        1.0  0.9937359877549217  0.7972651265831239  0.10974277067867888  1.0000
  O   O2        1.0  0.15532903115303753  0.023696229878638064  0.8478988564476033  1.0000
  O   O3        1.0  0.2445303067708906  0.39886858659841806  0.9882585476569252  1.0000
  O   O4        1.0  0.10331039493272698  0.3723954217591352  0.3235000394223757  1.0000
  O   O5        1.0  0.4572394744835009  0.6909980599447039  0.0689356896369766  1.0000
  O   O6        1.0  0.47868418501204424  0.8664539928747796  0.49880303096557554  1.0000
  O   O7        1.0  0.47079960201004667  0.4246896042901689  0.9335328821399145  1.0000
  O   O8        1.0  0.6171745560008519  0.9698179971972429  0.6902519031906209  1.0000
