data_image0
_chemical_formula_structural       LiO8
_chemical_formula_sum              "Li1 O8"
_cell_length_a       5.249754507535302
_cell_length_b       5.413199314268996
_cell_length_c       5.41221408469246
_cell_angle_alpha    66.06793548132961
_cell_angle_beta     55.04984107024682
_cell_angle_gamma    55.053804050826955

_space_group_name_H-M_alt    "P 1"
_space_group_IT_number       1

loop_
  _space_group_symop_operation_xyz
  'x, y, z'

loop_
  _atom_site_type_symbol
  _atom_site_label
  _atom_site_symmetry_multiplicity
  _atom_site_fract_x
  _atom_site_fract_y
  _atom_site_fract_z
  _atom_site_occupancy
  Li  Li1       1.0  0.09417941686244546  0.5909142886701417  0.3604050701510282  1.0000
  O   O1        1.0  0.7473650807300727  0.21752281194804723  0.4104049108978529  1.0000
  O   O2        1.0  0.8509161330895978  0.018389188801510414  0.5026953170154549  1.0000
  O   O3        1.0  0.5381868478727938  0.1639760137257369  0.11117457037856049  1.0000
  O   O4        1.0  0.7035069344280735  0.7298198497914523  0.8429278813368537  1.0000
  O   O5        1.0  0.3555972138513468  0.7555839707514949  0.32994373393458254  1.0000
  O   O6        1.0  0.07989833210060293  0.2968989244077882  0.7907466539783119  1.0000
  O   O7        1.0  0.8421281445365665  0.8662010173207619  0.41645416865682705  1.0000
  O   O8        1.0  0.16077183852466348  0.6287252184370056  0.23063151696284834  1.0000
