data_image0
_chemical_formula_structural       LiO8
_chemical_formula_sum              "Li1 O8"
_cell_length_a       5.249754507535302
_cell_length_b       5.413199314268996
_cell_length_c       5.41221408469246
_cell_angle_alpha    66.06793548132961
_cell_angle_beta     55.04984107024682
_cell_angle_gamma    55.053804050826955

_space_group_name_H-M_alt    "P 1"
_space_group_IT_number       1

loop_
  _space_group_symop_operation_xyz
  'x, y, z'

loop_
  _atom_site_type_symbol
  _atom_site_label
  _atom_site_symmetry_multiplicity
  _atom_site_fract_x
  _atom_site_fract_y
  _atom_site_fract_z
  _atom_site_occupancy
  Li  Li1       1.0  0.2453354703926891  0.4070932172527506  0.07585494306348295  1.0000
  O   O1        1.0  0.19071517712224662  0.06771236893811716  0.6815361458915561  1.0000
  O   O2        1.0  0.9824090175760567  0.9880674054769969  0.9822887992291314  1.0000
  O   O3        1.0  0.030805145661531697  0.6692977915865939  0.45238386480048476  1.0000
  O   O4        1.0  0.892219872759064  0.08229803480706951  0.0029167216270877816  1.0000
  O   O5        1.0  0.9936789411503781  0.040354818004644244  0.8309542503717324  1.0000
  O   O6        1.0  0.7220596636221259  0.9715977252729431  0.3478317666707653  1.0000
  O   O7        1.0  0.5336330187524894  0.48482915389365555  0.7177272203331384  1.0000
  O   O8        1.0  0.7688093095704076  0.33320612933466975  0.21140055737145858  1.0000
