data_image0
_chemical_formula_structural       LiO8
_chemical_formula_sum              "Li1 O8"
_cell_length_a       5.249754507535302
_cell_length_b       5.413199314268996
_cell_length_c       5.41221408469246
_cell_angle_alpha    66.06793548132961
_cell_angle_beta     55.04984107024682
_cell_angle_gamma    55.053804050826955

_space_group_name_H-M_alt    "P 1"
_space_group_IT_number       1

loop_
  _space_group_symop_operation_xyz
  'x, y, z'

loop_
  _atom_site_type_symbol
  _atom_site_label
  _atom_site_symmetry_multiplicity
  _atom_site_fract_x
  _atom_site_fract_y
  _atom_site_fract_z
  _atom_site_occupancy
  Li  Li1       1.0  0.6460990116462924  0.1342003187049361  0.04091093792355949  1.0000
  O   O1        1.0  0.2818309894820652  0.805926029636387  0.23075204891703294  1.0000
  O   O2        1.0  0.19225830918944808  0.01976782736141658  0.8303166352115952  1.0000
  O   O3        1.0  0.20895656941757323  0.3870591249739306  0.08237327562106067  1.0000
  O   O4        1.0  0.5419771601835102  0.3027616012922826  0.6429927538800326  1.0000
  O   O5        1.0  0.6909151239350049  0.9876219842852052  0.26843197944162966  1.0000
  O   O6        1.0  0.9274532437561156  0.2809935010602569  0.7168237881886306  1.0000
  O   O7        1.0  0.6088246817844549  0.6722961713363453  0.8459683028720946  1.0000
  O   O8        1.0  0.927351821488152  0.006991294510426904  0.2916116724408475  1.0000
