data_image0
_chemical_formula_structural       LiO8
_chemical_formula_sum              "Li1 O8"
_cell_length_a       5.249754507535302
_cell_length_b       5.413199314268996
_cell_length_c       5.41221408469246
_cell_angle_alpha    66.06793548132961
_cell_angle_beta     55.04984107024682
_cell_angle_gamma    55.053804050826955

_space_group_name_H-M_alt    "P 1"
_space_group_IT_number       1

loop_
  _space_group_symop_operation_xyz
  'x, y, z'

loop_
  _atom_site_type_symbol
  _atom_site_label
  _atom_site_symmetry_multiplicity
  _atom_site_fract_x
  _atom_site_fract_y
  _atom_site_fract_z
  _atom_site_occupancy
  Li  Li1       1.0  0.7677406076202118  0.760593831291871  0.36262599184926714  1.0000
  O   O1        1.0  0.44908313391042043  0.4890434986933556  0.5970863332067964  1.0000
  O   O2        1.0  0.15374260297247933  0.019222523533969138  0.907822129458264  1.0000
  O   O3        1.0  0.8032000086848825  0.698958401098853  0.8657476046072645  1.0000
  O   O4        1.0  0.8422699422106597  0.07692923247689798  0.7909552824211943  1.0000
  O   O5        1.0  0.9301490743649055  0.29442156194129154  0.5038726870801469  1.0000
  O   O6        1.0  0.006705583162069928  0.9016685305697116  0.8563952780649045  1.0000
  O   O7        1.0  0.26388266552224593  0.49164890544632955  0.613162473451375  1.0000
  O   O8        1.0  0.06744289113595592  0.7684360773988779  0.48876950004890585  1.0000
