data_image0
_chemical_formula_structural       LiO8
_chemical_formula_sum              "Li1 O8"
_cell_length_a       5.249754507535302
_cell_length_b       5.413199314268996
_cell_length_c       5.41221408469246
_cell_angle_alpha    66.06793548132961
_cell_angle_beta     55.04984107024682
_cell_angle_gamma    55.053804050826955

_space_group_name_H-M_alt    "P 1"
_space_group_IT_number       1

loop_
  _space_group_symop_operation_xyz
  'x, y, z'

loop_
  _atom_site_type_symbol
  _atom_site_label
  _atom_site_symmetry_multiplicity
  _atom_site_fract_x
  _atom_site_fract_y
  _atom_site_fract_z
  _atom_site_occupancy
  Li  Li1       1.0  0.6861331498556922  0.24255762790042468  0.7243826867006078  1.0000
  O   O1        1.0  0.05636086428237519  0.6582144752995944  0.985873999787442  1.0000
  O   O2        1.0  0.8387930719025167  0.7366342372918773  0.08702214278092413  1.0000
  O   O3        1.0  0.600877949901303  0.40970974361669477  0.6819563720676598  1.0000
  O   O4        1.0  0.7486511663456881  0.30269484051904527  0.5497096675670434  1.0000
  O   O5        1.0  0.30206033774688024  0.9245932604580425  0.693909283752518  1.0000
  O   O6        1.0  0.8913797302737088  0.5424916933791764  0.16765255781869826  1.0000
  O   O7        1.0  0.007388537470859546  0.5286544247421516  0.2230223733632073  1.0000
  O   O8        1.0  0.15462023062229147  0.048101288412153664  0.25867926814414377  1.0000
