data_image0
_chemical_formula_structural       LiO8
_chemical_formula_sum              "Li1 O8"
_cell_length_a       5.249754507535302
_cell_length_b       5.413199314268996
_cell_length_c       5.41221408469246
_cell_angle_alpha    66.06793548132961
_cell_angle_beta     55.04984107024682
_cell_angle_gamma    55.053804050826955

_space_group_name_H-M_alt    "P 1"
_space_group_IT_number       1

loop_
  _space_group_symop_operation_xyz
  'x, y, z'

loop_
  _atom_site_type_symbol
  _atom_site_label
  _atom_site_symmetry_multiplicity
  _atom_site_fract_x
  _atom_site_fract_y
  _atom_site_fract_z
  _atom_site_occupancy
  Li  Li1       1.0  0.6986365464391397  0.781074760475807  0.36392011272119973  1.0000
  O   O1        1.0  0.87775721613869  0.5675349276052959  0.3444819990722934  1.0000
  O   O2        1.0  0.5637861753558013  0.4800520058655522  0.862078673478198  1.0000
  O   O3        1.0  0.046937518687407476  0.08714377494577263  0.4165918694426729  1.0000
  O   O4        1.0  0.2510204618616614  0.22144009724250324  0.6490951184219411  1.0000
  O   O5        1.0  0.5487232319743214  0.6738718113929174  0.03417963287881953  1.0000
  O   O6        1.0  0.3375260776888034  0.48555120310162536  0.9634824044023933  1.0000
  O   O7        1.0  0.07160719483313116  0.68588909108108  0.23023884852821652  1.0000
  O   O8        1.0  0.656255487273091  0.048163053923026666  0.1392160484693683  1.0000
