data_image0
_chemical_formula_structural       LiO8
_chemical_formula_sum              "Li1 O8"
_cell_length_a       5.249754507535302
_cell_length_b       5.413199314268996
_cell_length_c       5.41221408469246
_cell_angle_alpha    66.06793548132961
_cell_angle_beta     55.04984107024682
_cell_angle_gamma    55.053804050826955

_space_group_name_H-M_alt    "P 1"
_space_group_IT_number       1

loop_
  _space_group_symop_operation_xyz
  'x, y, z'

loop_
  _atom_site_type_symbol
  _atom_site_label
  _atom_site_symmetry_multiplicity
  _atom_site_fract_x
  _atom_site_fract_y
  _atom_site_fract_z
  _atom_site_occupancy
  Li  Li1       1.0  0.20430911521003736  0.887491824642511  0.8078895343018644  1.0000
  O   O1        1.0  0.18413458884063594  0.16256042615052024  0.2370580518552856  1.0000
  O   O2        1.0  0.791018773205657  0.24082213049304002  0.11246193823437878  1.0000
  O   O3        1.0  0.2046084151831451  0.8965206899938636  0.3579554915692871  1.0000
  O   O4        1.0  0.4691303367480799  0.8462555602038839  0.3936443079971532  1.0000
  O   O5        1.0  0.8232304370848187  0.6934879793208708  0.07386274405231319  1.0000
  O   O6        1.0  0.5149665585215608  0.7664819162781678  0.16100974141342306  1.0000
  O   O7        1.0  0.23888992514709173  0.09143932439208058  0.19441118765958265  1.0000
  O   O8        1.0  0.35614237058833176  0.9749631510165537  0.49431667955615133  1.0000
