data_image0
_chemical_formula_structural       LiO8
_chemical_formula_sum              "Li1 O8"
_cell_length_a       5.249754507535302
_cell_length_b       5.413199314268996
_cell_length_c       5.41221408469246
_cell_angle_alpha    66.06793548132961
_cell_angle_beta     55.04984107024682
_cell_angle_gamma    55.053804050826955

_space_group_name_H-M_alt    "P 1"
_space_group_IT_number       1

loop_
  _space_group_symop_operation_xyz
  'x, y, z'

loop_
  _atom_site_type_symbol
  _atom_site_label
  _atom_site_symmetry_multiplicity
  _atom_site_fract_x
  _atom_site_fract_y
  _atom_site_fract_z
  _atom_site_occupancy
  Li  Li1       1.0  0.5139096725499144  0.8880593466899853  0.7526123805121685  1.0000
  O   O1        1.0  0.40767179400461373  0.1331895389744242  0.30018743768165734  1.0000
  O   O2        1.0  0.5054277343199729  0.20293875280742668  0.7070436253322256  1.0000
  O   O3        1.0  0.11274882699920852  0.021899254135927748  0.06080631821100724  1.0000
  O   O4        1.0  0.17479290817661308  0.6874799845017092  0.316878055941487  1.0000
  O   O5        1.0  0.4734765955391964  0.9296160749915714  0.7602966778743934  1.0000
  O   O6        1.0  0.031635970647993616  0.5298866523026717  0.36236239078850474  1.0000
  O   O7        1.0  0.6366474587799544  0.28783696158991123  0.7296882411581045  1.0000
  O   O8        1.0  0.6269934899361616  0.2057628967746723  0.4624985189001958  1.0000
