data_image0
_chemical_formula_structural       LiO8
_chemical_formula_sum              "Li1 O8"
_cell_length_a       5.249754507535302
_cell_length_b       5.413199314268996
_cell_length_c       5.41221408469246
_cell_angle_alpha    66.06793548132961
_cell_angle_beta     55.04984107024682
_cell_angle_gamma    55.053804050826955

_space_group_name_H-M_alt    "P 1"
_space_group_IT_number       1

loop_
  _space_group_symop_operation_xyz
  'x, y, z'

loop_
  _atom_site_type_symbol
  _atom_site_label
  _atom_site_symmetry_multiplicity
  _atom_site_fract_x
  _atom_site_fract_y
  _atom_site_fract_z
  _atom_site_occupancy
  Li  Li1       1.0  0.03262664455692743  0.8856766711931456  0.18410079870975693  1.0000
  O   O1        1.0  0.875223872356024  0.039962395082561386  0.9647181012580788  1.0000
  O   O2        1.0  0.31249285462012644  0.8471743410223525  0.7710142536738047  1.0000
  O   O3        1.0  0.8885935424436724  0.04535978376461003  0.806736536094629  1.0000
  O   O4        1.0  0.8672266032820133  0.3768951833277825  0.733338163075608  1.0000
  O   O5        1.0  0.596431326625078  0.0006214031287079536  0.24261020421538593  1.0000
  O   O6        1.0  0.9154103853264353  0.06052574642380293  0.4416947562472231  1.0000
  O   O7        1.0  0.49978819413858844  0.6346313818163765  0.7612570969924377  1.0000
  O   O8        1.0  0.6879529782630556  0.6639477359726662  0.6518045359311699  1.0000
