data_image0
_chemical_formula_structural       LiO8
_chemical_formula_sum              "Li1 O8"
_cell_length_a       5.249754507535302
_cell_length_b       5.413199314268996
_cell_length_c       5.41221408469246
_cell_angle_alpha    66.06793548132961
_cell_angle_beta     55.04984107024682
_cell_angle_gamma    55.053804050826955

_space_group_name_H-M_alt    "P 1"
_space_group_IT_number       1

loop_
  _space_group_symop_operation_xyz
  'x, y, z'

loop_
  _atom_site_type_symbol
  _atom_site_label
  _atom_site_symmetry_multiplicity
  _atom_site_fract_x
  _atom_site_fract_y
  _atom_site_fract_z
  _atom_site_occupancy
  Li  Li1       1.0  0.2713400944041098  0.7250612884261365  0.09520300587528396  1.0000
  O   O1        1.0  0.18015227006468848  0.5455284308575656  0.5920227550962434  1.0000
  O   O2        1.0  0.349888971440544  0.7502794083627116  0.8611592386679305  1.0000
  O   O3        1.0  0.9457336108800547  0.8998925433784315  0.8677562345472012  1.0000
  O   O4        1.0  0.1860831374305132  0.5076550271559608  0.8379712974332918  1.0000
  O   O5        1.0  0.3791068188822777  0.12133251135366407  0.19236446903537185  1.0000
  O   O6        1.0  0.3355979638056315  0.3410290883116822  0.4482781078955096  1.0000
  O   O7        1.0  0.0058357137495264055  0.822794935436684  0.18201064089945618  1.0000
  O   O8        1.0  0.17864154670824206  0.7522004833334925  0.19639988606025172  1.0000
