data_image0
_chemical_formula_structural       LiO8
_chemical_formula_sum              "Li1 O8"
_cell_length_a       5.249754507535302
_cell_length_b       5.413199314268996
_cell_length_c       5.41221408469246
_cell_angle_alpha    66.06793548132961
_cell_angle_beta     55.04984107024682
_cell_angle_gamma    55.053804050826955

_space_group_name_H-M_alt    "P 1"
_space_group_IT_number       1

loop_
  _space_group_symop_operation_xyz
  'x, y, z'

loop_
  _atom_site_type_symbol
  _atom_site_label
  _atom_site_symmetry_multiplicity
  _atom_site_fract_x
  _atom_site_fract_y
  _atom_site_fract_z
  _atom_site_occupancy
  Li  Li1       1.0  0.07540194105590103  0.37550574933855785  0.5258992003473182  1.0000
  O   O1        1.0  0.19749970086709823  0.9477385444662758  0.9122368402016505  1.0000
  O   O2        1.0  0.9793322959352171  0.38420679942746716  0.1911216146428103  1.0000
  O   O3        1.0  0.7269559862126442  0.3879497436509425  0.5795388241761117  1.0000
  O   O4        1.0  0.20342137327166654  0.5632249240029275  0.18626100623153263  1.0000
  O   O5        1.0  0.4196312600926291  0.026298921544501752  0.02211061265464309  1.0000
  O   O6        1.0  0.31082895222803253  0.6823639711435021  0.4128742166855659  1.0000
  O   O7        1.0  0.2615716276191762  0.29269210772871146  0.33740377667923305  1.0000
  O   O8        1.0  0.7214125563802636  0.7874447002145715  0.7167768574804174  1.0000
