data_image0
_chemical_formula_structural       LiO8
_chemical_formula_sum              "Li1 O8"
_cell_length_a       5.249754507535302
_cell_length_b       5.413199314268996
_cell_length_c       5.41221408469246
_cell_angle_alpha    66.06793548132961
_cell_angle_beta     55.04984107024682
_cell_angle_gamma    55.053804050826955

_space_group_name_H-M_alt    "P 1"
_space_group_IT_number       1

loop_
  _space_group_symop_operation_xyz
  'x, y, z'

loop_
  _atom_site_type_symbol
  _atom_site_label
  _atom_site_symmetry_multiplicity
  _atom_site_fract_x
  _atom_site_fract_y
  _atom_site_fract_z
  _atom_site_occupancy
  Li  Li1       1.0  0.29575126039574684  0.4010830830273022  0.04593814650849026  1.0000
  O   O1        1.0  0.6446028442091247  0.6691593264752811  0.5203802518238039  1.0000
  O   O2        1.0  0.6865171983326608  0.3836317384459029  0.7911233968035134  1.0000
  O   O3        1.0  0.2708429767674403  0.5150390160191023  0.3543882265069698  1.0000
  O   O4        1.0  0.436130132380562  0.9395511930251743  0.04450624660825042  1.0000
  O   O5        1.0  0.5086158254239876  0.9325577825651266  0.4738599491949742  1.0000
  O   O6        1.0  0.8589490696553241  0.9163341987821525  0.735719042203371  1.0000
  O   O7        1.0  0.9712160221365131  0.13458561456016582  0.4425948167483895  1.0000
  O   O8        1.0  0.6006055553876899  0.651456439534897  0.3446259383594663  1.0000
