data_image0
_chemical_formula_structural       LiO8
_chemical_formula_sum              "Li1 O8"
_cell_length_a       5.249754507535302
_cell_length_b       5.413199314268996
_cell_length_c       5.41221408469246
_cell_angle_alpha    66.06793548132961
_cell_angle_beta     55.04984107024682
_cell_angle_gamma    55.053804050826955

_space_group_name_H-M_alt    "P 1"
_space_group_IT_number       1

loop_
  _space_group_symop_operation_xyz
  'x, y, z'

loop_
  _atom_site_type_symbol
  _atom_site_label
  _atom_site_symmetry_multiplicity
  _atom_site_fract_x
  _atom_site_fract_y
  _atom_site_fract_z
  _atom_site_occupancy
  Li  Li1       1.0  0.3128478399598862  0.02813588027095193  0.4257440443001528  1.0000
  O   O1        1.0  0.9943350958179158  0.30818737081312797  0.6035113082243306  1.0000
  O   O2        1.0  0.4120598671419735  0.0499417457759912  0.7131083178584703  1.0000
  O   O3        1.0  0.592094089140069  0.19159518626844374  0.5573417587443217  1.0000
  O   O4        1.0  0.15792085326732064  0.9601555997315643  0.19788665999640642  1.0000
  O   O5        1.0  0.7551247420812595  0.8996497367980929  0.008850265740101726  1.0000
  O   O6        1.0  0.13498676504461238  0.06003588841929641  0.18701132007476584  1.0000
  O   O7        1.0  0.3368952598341366  0.2378793741584957  0.6599155353595165  1.0000
  O   O8        1.0  0.05273691078479814  0.831163777911371  0.8312493020295282  1.0000
