data_image0
_chemical_formula_structural       LiO8
_chemical_formula_sum              "Li1 O8"
_cell_length_a       5.249754507535302
_cell_length_b       5.413199314268996
_cell_length_c       5.41221408469246
_cell_angle_alpha    66.06793548132961
_cell_angle_beta     55.04984107024682
_cell_angle_gamma    55.053804050826955

_space_group_name_H-M_alt    "P 1"
_space_group_IT_number       1

loop_
  _space_group_symop_operation_xyz
  'x, y, z'

loop_
  _atom_site_type_symbol
  _atom_site_label
  _atom_site_symmetry_multiplicity
  _atom_site_fract_x
  _atom_site_fract_y
  _atom_site_fract_z
  _atom_site_occupancy
  Li  Li1       1.0  0.9206178415998965  0.4641526871714454  0.33987309680781097  1.0000
  O   O1        1.0  0.9381147390288351  0.6729684171785788  0.022673802179706826  1.0000
  O   O2        1.0  0.40471362706082914  0.8564177927783214  0.20682427092863875  1.0000
  O   O3        1.0  0.07997300224892001  0.9053128032055895  0.5797655553416483  1.0000
  O   O4        1.0  0.8137619933577973  0.3222455107854527  0.8957284500361489  1.0000
  O   O5        1.0  0.2564760274805913  0.03896136975026421  0.36974653834749205  1.0000
  O   O6        1.0  0.2233787471338271  0.6823200404809526  0.6204063314314467  1.0000
  O   O7        1.0  0.5642110624800445  0.7524861577742445  0.7683715565585594  1.0000
  O   O8        1.0  0.5079264991951931  0.4291402211884474  0.8944048292991553  1.0000
