data_image0
_chemical_formula_structural       LiO8
_chemical_formula_sum              "Li1 O8"
_cell_length_a       5.249754507535302
_cell_length_b       5.413199314268996
_cell_length_c       5.41221408469246
_cell_angle_alpha    66.06793548132961
_cell_angle_beta     55.04984107024682
_cell_angle_gamma    55.053804050826955

_space_group_name_H-M_alt    "P 1"
_space_group_IT_number       1

loop_
  _space_group_symop_operation_xyz
  'x, y, z'

loop_
  _atom_site_type_symbol
  _atom_site_label
  _atom_site_symmetry_multiplicity
  _atom_site_fract_x
  _atom_site_fract_y
  _atom_site_fract_z
  _atom_site_occupancy
  Li  Li1       1.0  0.263909556528799  0.46425659987648515  0.5973034642395977  1.0000
  O   O1        1.0  0.0872761008075944  0.5472670795505152  0.8107033815887243  1.0000
  O   O2        1.0  0.013210744204670277  0.8632876162853957  0.06059437045518834  1.0000
  O   O3        1.0  0.7872680036755852  0.5640428318805135  0.3711959667710705  1.0000
  O   O4        1.0  0.5212835160465552  0.31333369944075073  0.8223341407806046  1.0000
  O   O5        1.0  0.1994176953197453  0.4911236935128187  0.37979065924373856  1.0000
  O   O6        1.0  0.4664189079141394  0.4681324393077766  0.30228874679461093  1.0000
  O   O7        1.0  0.28495530564743277  0.13383852566277454  0.5118809251247782  1.0000
  O   O8        1.0  0.12386736978512403  0.8744614102355825  0.7813049360422593  1.0000
