data_image0
_chemical_formula_structural       LiO8
_chemical_formula_sum              "Li1 O8"
_cell_length_a       5.249754507535302
_cell_length_b       5.413199314268996
_cell_length_c       5.41221408469246
_cell_angle_alpha    66.06793548132961
_cell_angle_beta     55.04984107024682
_cell_angle_gamma    55.053804050826955

_space_group_name_H-M_alt    "P 1"
_space_group_IT_number       1

loop_
  _space_group_symop_operation_xyz
  'x, y, z'

loop_
  _atom_site_type_symbol
  _atom_site_label
  _atom_site_symmetry_multiplicity
  _atom_site_fract_x
  _atom_site_fract_y
  _atom_site_fract_z
  _atom_site_occupancy
  Li  Li1       1.0  0.5687825762362877  0.3466589031326208  0.5289583129749786  1.0000
  O   O1        1.0  0.4255677715004573  0.4815130729822261  0.9523157791464669  1.0000
  O   O2        1.0  0.7003981166195707  0.5278649593975899  0.24922450310146615  1.0000
  O   O3        1.0  0.13725584618171638  0.7392841441893268  0.09789190705095763  1.0000
  O   O4        1.0  0.5713551954820844  0.577206711072189  0.28640599098028474  1.0000
  O   O5        1.0  0.6049349243762663  0.06105492876737273  0.11186204261365162  1.0000
  O   O6        1.0  0.16028246783602462  0.9186282672958299  0.6807500473209487  1.0000
  O   O7        1.0  0.7370291343521149  0.8173931162518269  0.1003885477499793  1.0000
  O   O8        1.0  0.7420390259320762  0.96280794010341  0.9574357976597114  1.0000
