data_image0
_chemical_formula_structural       LiO8
_chemical_formula_sum              "Li1 O8"
_cell_length_a       5.249754507535302
_cell_length_b       5.413199314268996
_cell_length_c       5.41221408469246
_cell_angle_alpha    66.06793548132961
_cell_angle_beta     55.04984107024682
_cell_angle_gamma    55.053804050826955

_space_group_name_H-M_alt    "P 1"
_space_group_IT_number       1

loop_
  _space_group_symop_operation_xyz
  'x, y, z'

loop_
  _atom_site_type_symbol
  _atom_site_label
  _atom_site_symmetry_multiplicity
  _atom_site_fract_x
  _atom_site_fract_y
  _atom_site_fract_z
  _atom_site_occupancy
  Li  Li1       1.0  0.8237530123164021  0.7064936928315273  0.8261083744177995  1.0000
  O   O1        1.0  0.7079040809371051  0.06432769599564736  0.2642560359876214  1.0000
  O   O2        1.0  0.2000004645819109  0.5552633753104423  0.4724528776849759  1.0000
  O   O3        1.0  0.9744912433519559  0.7318495390134458  0.14587697021945445  1.0000
  O   O4        1.0  0.6075353369284926  0.12936517929310298  0.59049828294782  1.0000
  O   O5        1.0  0.9338010453064811  0.7638493156707682  0.48915326087008637  1.0000
  O   O6        1.0  0.11550424983768437  0.6538379553686688  0.9026669497134154  1.0000
  O   O7        1.0  0.4819588211385657  0.3791627403068141  0.9601762073795364  1.0000
  O   O8        1.0  0.20391784819692838  0.5713723236981068  0.45328012646905425  1.0000
