data_image0
_chemical_formula_structural       LiO8
_chemical_formula_sum              "Li1 O8"
_cell_length_a       5.249754507535302
_cell_length_b       5.413199314268996
_cell_length_c       5.41221408469246
_cell_angle_alpha    66.06793548132961
_cell_angle_beta     55.04984107024682
_cell_angle_gamma    55.053804050826955

_space_group_name_H-M_alt    "P 1"
_space_group_IT_number       1

loop_
  _space_group_symop_operation_xyz
  'x, y, z'

loop_
  _atom_site_type_symbol
  _atom_site_label
  _atom_site_symmetry_multiplicity
  _atom_site_fract_x
  _atom_site_fract_y
  _atom_site_fract_z
  _atom_site_occupancy
  Li  Li1       1.0  0.6863692242184598  0.39120948874777284  0.26418399360484557  1.0000
  O   O1        1.0  0.03892889956153023  0.9346391640646523  0.4035505081749946  1.0000
  O   O2        1.0  0.28083819639084595  0.4872756317293856  0.21454978194688223  1.0000
  O   O3        1.0  0.5071393584459045  0.6181557079939779  0.9033577235026424  1.0000
  O   O4        1.0  0.1823099146467868  0.12001527267257295  0.7579938197167806  1.0000
  O   O5        1.0  0.20211887650436466  0.10528635454883073  0.9216589479421806  1.0000
  O   O6        1.0  0.5124562039392817  0.26089486750685753  0.24428716929519823  1.0000
  O   O7        1.0  0.06088280639083621  0.28500932080365615  0.6622671504176338  1.0000
  O   O8        1.0  0.6539914983334914  0.014710658610845861  0.9335365822725468  1.0000
