data_image0
_chemical_formula_structural       LiO8
_chemical_formula_sum              "Li1 O8"
_cell_length_a       5.249754507535302
_cell_length_b       5.413199314268996
_cell_length_c       5.41221408469246
_cell_angle_alpha    66.06793548132961
_cell_angle_beta     55.04984107024682
_cell_angle_gamma    55.053804050826955

_space_group_name_H-M_alt    "P 1"
_space_group_IT_number       1

loop_
  _space_group_symop_operation_xyz
  'x, y, z'

loop_
  _atom_site_type_symbol
  _atom_site_label
  _atom_site_symmetry_multiplicity
  _atom_site_fract_x
  _atom_site_fract_y
  _atom_site_fract_z
  _atom_site_occupancy
  Li  Li1       1.0  0.6058029264374909  0.2561424551151745  0.020124432241146906  1.0000
  O   O1        1.0  0.7639389851142795  0.608170564986672  0.4347047192586935  1.0000
  O   O2        1.0  0.4113387965302273  0.26247415346613323  0.4080961726163146  1.0000
  O   O3        1.0  0.8611050427200695  0.08520154557508164  0.04396471776782107  1.0000
  O   O4        1.0  0.5190465641900417  0.8325810064372767  0.2746663846298816  1.0000
  O   O5        1.0  0.838887519227896  0.5200669135661933  0.7068627809769055  1.0000
  O   O6        1.0  0.6817188448493621  0.8518797678139336  0.5828787831108855  1.0000
  O   O7        1.0  0.8512137909346116  0.14581201552946865  0.9478543075487877  1.0000
  O   O8        1.0  0.2503134210259339  0.7308226212351734  0.9873876606523284  1.0000
