data_image0
_chemical_formula_structural       LiO8
_chemical_formula_sum              "Li1 O8"
_cell_length_a       5.249754507535302
_cell_length_b       5.413199314268996
_cell_length_c       5.41221408469246
_cell_angle_alpha    66.06793548132961
_cell_angle_beta     55.04984107024682
_cell_angle_gamma    55.053804050826955

_space_group_name_H-M_alt    "P 1"
_space_group_IT_number       1

loop_
  _space_group_symop_operation_xyz
  'x, y, z'

loop_
  _atom_site_type_symbol
  _atom_site_label
  _atom_site_symmetry_multiplicity
  _atom_site_fract_x
  _atom_site_fract_y
  _atom_site_fract_z
  _atom_site_occupancy
  Li  Li1       1.0  0.7813464147810123  0.6047886037581449  0.7850807265110546  1.0000
  O   O1        1.0  0.45962339624129456  0.6723801691127385  0.08312261525013653  1.0000
  O   O2        1.0  0.860646871696078  0.6046232409018009  0.640173303158921  1.0000
  O   O3        1.0  0.3422796839474742  0.8788055704636406  0.07644969560449155  1.0000
  O   O4        1.0  0.8503346406544807  0.842353247166681  0.9243736117257484  1.0000
  O   O5        1.0  0.28220471021495186  0.5986784937888228  0.5451181509868972  1.0000
  O   O6        1.0  0.26077726856679817  0.4275245487955388  0.6478421097094547  1.0000
  O   O7        1.0  0.8025962064516108  0.0665828027400508  0.9375545885253871  1.0000
  O   O8        1.0  0.2103276779504668  0.8983049174813829  0.6729840870425932  1.0000
