data_image0
_chemical_formula_structural       LiO8
_chemical_formula_sum              "Li1 O8"
_cell_length_a       5.249754507535302
_cell_length_b       5.413199314268996
_cell_length_c       5.41221408469246
_cell_angle_alpha    66.06793548132961
_cell_angle_beta     55.04984107024682
_cell_angle_gamma    55.053804050826955

_space_group_name_H-M_alt    "P 1"
_space_group_IT_number       1

loop_
  _space_group_symop_operation_xyz
  'x, y, z'

loop_
  _atom_site_type_symbol
  _atom_site_label
  _atom_site_symmetry_multiplicity
  _atom_site_fract_x
  _atom_site_fract_y
  _atom_site_fract_z
  _atom_site_occupancy
  Li  Li1       1.0  0.09519106505365471  0.5279375717853938  0.5469598997518474  1.0000
  O   O1        1.0  0.6223402563446996  0.9848219467400607  0.9519104157992508  1.0000
  O   O2        1.0  0.7116907233186816  0.4549843985578068  0.23327580871820075  1.0000
  O   O3        1.0  0.7828952002640861  0.7552685235857552  0.14853632518572013  1.0000
  O   O4        1.0  0.20293078254260166  0.4782622321725718  0.9475018644893893  1.0000
  O   O5        1.0  0.7356817211813369  0.7154742195443582  0.1603013940806286  1.0000
  O   O6        1.0  0.5540894125151965  0.25346305291146276  0.8033827917345775  1.0000
  O   O7        1.0  0.8683475572188115  0.09441490530298324  0.27378483967957834  1.0000
  O   O8        1.0  0.6703691438559041  0.6533632828587486  0.9140645187472867  1.0000
