data_image0
_chemical_formula_structural       LiO8
_chemical_formula_sum              "Li1 O8"
_cell_length_a       5.249754507535302
_cell_length_b       5.413199314268996
_cell_length_c       5.41221408469246
_cell_angle_alpha    66.06793548132961
_cell_angle_beta     55.04984107024682
_cell_angle_gamma    55.053804050826955

_space_group_name_H-M_alt    "P 1"
_space_group_IT_number       1

loop_
  _space_group_symop_operation_xyz
  'x, y, z'

loop_
  _atom_site_type_symbol
  _atom_site_label
  _atom_site_symmetry_multiplicity
  _atom_site_fract_x
  _atom_site_fract_y
  _atom_site_fract_z
  _atom_site_occupancy
  Li  Li1       1.0  0.06959635213367932  0.3196621678740783  0.30722307604220234  1.0000
  O   O1        1.0  0.41556402909326096  0.6521390979390382  0.32659652684193397  1.0000
  O   O2        1.0  0.2927877057087933  0.2644938850851559  0.3112141043305279  1.0000
  O   O3        1.0  0.6300348183913229  0.5386474398621282  0.40498556621196613  1.0000
  O   O4        1.0  0.42617295845513326  0.6875362960192533  0.5659086841140208  1.0000
  O   O5        1.0  0.22931175897862488  0.32721274175957404  0.4544954333702158  1.0000
  O   O6        1.0  0.39785548467941023  0.4828325387802437  0.16532974714065496  1.0000
  O   O7        1.0  0.020827208029196242  0.8632582998592824  0.40188380114999944  1.0000
  O   O8        1.0  0.16135480315235373  0.15373460909195558  0.47969309949512606  1.0000
