data_image0
_chemical_formula_structural       LiO8
_chemical_formula_sum              "Li1 O8"
_cell_length_a       5.249754507535302
_cell_length_b       5.413199314268996
_cell_length_c       5.41221408469246
_cell_angle_alpha    66.06793548132961
_cell_angle_beta     55.04984107024682
_cell_angle_gamma    55.053804050826955

_space_group_name_H-M_alt    "P 1"
_space_group_IT_number       1

loop_
  _space_group_symop_operation_xyz
  'x, y, z'

loop_
  _atom_site_type_symbol
  _atom_site_label
  _atom_site_symmetry_multiplicity
  _atom_site_fract_x
  _atom_site_fract_y
  _atom_site_fract_z
  _atom_site_occupancy
  Li  Li1       1.0  0.5880699677361747  0.13253727718391417  0.7255133554574087  1.0000
  O   O1        1.0  0.9887909345772101  0.9964264085660552  0.8205514056972447  1.0000
  O   O2        1.0  0.27398851694078274  0.6883391389805809  0.5173596084045045  1.0000
  O   O3        1.0  0.8765830724599724  0.8817150172825308  0.667565929260487  1.0000
  O   O4        1.0  0.5678919152855926  0.8412252262633153  0.1215128860504393  1.0000
  O   O5        1.0  0.37090076838327946  0.555730287749924  0.7791003639268723  1.0000
  O   O6        1.0  0.461683102851274  0.4650409166629572  0.2554801599108458  1.0000
  O   O7        1.0  0.13303673446696251  0.6914186555645614  0.6898252706669084  1.0000
  O   O8        1.0  0.9033972867554638  0.4246653430443814  0.8759157744133743  1.0000
