data_image0
_chemical_formula_structural       LiO8
_chemical_formula_sum              "Li1 O8"
_cell_length_a       5.249754507535302
_cell_length_b       5.413199314268996
_cell_length_c       5.41221408469246
_cell_angle_alpha    66.06793548132961
_cell_angle_beta     55.04984107024682
_cell_angle_gamma    55.053804050826955

_space_group_name_H-M_alt    "P 1"
_space_group_IT_number       1

loop_
  _space_group_symop_operation_xyz
  'x, y, z'

loop_
  _atom_site_type_symbol
  _atom_site_label
  _atom_site_symmetry_multiplicity
  _atom_site_fract_x
  _atom_site_fract_y
  _atom_site_fract_z
  _atom_site_occupancy
  Li  Li1       1.0  0.4376268864652957  0.023795581329075333  0.737709581951556  1.0000
  O   O1        1.0  0.9087063456493496  0.48075682107138107  0.38291029710997826  1.0000
  O   O2        1.0  0.611088100772958  0.28063481711679567  0.5756740446220725  1.0000
  O   O3        1.0  0.2776160506846992  0.6711979351651962  0.6819265111847983  1.0000
  O   O4        1.0  0.09852506161378471  0.7600561223379643  0.3060542227980676  1.0000
  O   O5        1.0  0.2529388112425295  0.8500661559463509  0.09224300449285039  1.0000
  O   O6        1.0  0.9527888102367603  0.891629841001091  0.18535007324248198  1.0000
  O   O7        1.0  0.034712056999861574  0.3694416900506279  0.17107488927227976  1.0000
  O   O8        1.0  0.5438654518129287  0.4347316210337735  0.6328167792276136  1.0000
