data_image0
_chemical_formula_structural       LiO8
_chemical_formula_sum              "Li1 O8"
_cell_length_a       5.249754507535302
_cell_length_b       5.413199314268996
_cell_length_c       5.41221408469246
_cell_angle_alpha    66.06793548132961
_cell_angle_beta     55.04984107024682
_cell_angle_gamma    55.053804050826955

_space_group_name_H-M_alt    "P 1"
_space_group_IT_number       1

loop_
  _space_group_symop_operation_xyz
  'x, y, z'

loop_
  _atom_site_type_symbol
  _atom_site_label
  _atom_site_symmetry_multiplicity
  _atom_site_fract_x
  _atom_site_fract_y
  _atom_site_fract_z
  _atom_site_occupancy
  Li  Li1       1.0  0.985243094621076  0.5277215961640849  0.9738467138579097  1.0000
  O   O1        1.0  0.32313241502074774  0.9950596605650954  0.5238197981726884  1.0000
  O   O2        1.0  0.4457365207227184  0.08492571561785489  0.3664223124898385  1.0000
  O   O3        1.0  0.1933689880638525  0.03971554567856117  0.8779511673169509  1.0000
  O   O4        1.0  0.663096147074846  0.9345082309623773  0.6277868580728665  1.0000
  O   O5        1.0  0.3614289960987378  0.7604430908431095  0.11159334609298277  1.0000
  O   O6        1.0  0.1403688138305057  0.31105787854564815  0.4285303100943896  1.0000
  O   O7        1.0  0.3478955269791726  0.06697138565781913  0.6158772373224082  1.0000
  O   O8        1.0  0.5230723965170085  0.5192644821712911  0.9786751648438532  1.0000
