data_image0
_chemical_formula_structural       LiO8
_chemical_formula_sum              "Li1 O8"
_cell_length_a       5.249754507535302
_cell_length_b       5.413199314268996
_cell_length_c       5.41221408469246
_cell_angle_alpha    66.06793548132961
_cell_angle_beta     55.04984107024682
_cell_angle_gamma    55.053804050826955

_space_group_name_H-M_alt    "P 1"
_space_group_IT_number       1

loop_
  _space_group_symop_operation_xyz
  'x, y, z'

loop_
  _atom_site_type_symbol
  _atom_site_label
  _atom_site_symmetry_multiplicity
  _atom_site_fract_x
  _atom_site_fract_y
  _atom_site_fract_z
  _atom_site_occupancy
  Li  Li1       1.0  0.714872545908662  0.8668879810849717  0.31818268034479047  1.0000
  O   O1        1.0  0.14346096225139604  0.15910830721129088  0.8213736033712351  1.0000
  O   O2        1.0  0.6586639969860189  0.7141502653714191  0.06355540089165146  1.0000
  O   O3        1.0  0.5965389239761123  0.4394232701564036  0.5874345331944326  1.0000
  O   O4        1.0  0.4069864467255915  0.7668182903039771  0.15554080817246074  1.0000
  O   O5        1.0  0.023467847360350902  0.5865743865887438  0.4555609487594765  1.0000
  O   O6        1.0  0.36669549091536524  0.36854180735637243  0.9702968412186053  1.0000
  O   O7        1.0  0.20843682749676873  0.9158604204351644  0.4379798068108016  1.0000
  O   O8        1.0  0.5233392956809144  0.9626548345456456  0.5344992033113485  1.0000
