data_image0
_chemical_formula_structural       LiO8
_chemical_formula_sum              "Li1 O8"
_cell_length_a       5.249754507535302
_cell_length_b       5.413199314268996
_cell_length_c       5.41221408469246
_cell_angle_alpha    66.06793548132961
_cell_angle_beta     55.04984107024682
_cell_angle_gamma    55.053804050826955

_space_group_name_H-M_alt    "P 1"
_space_group_IT_number       1

loop_
  _space_group_symop_operation_xyz
  'x, y, z'

loop_
  _atom_site_type_symbol
  _atom_site_label
  _atom_site_symmetry_multiplicity
  _atom_site_fract_x
  _atom_site_fract_y
  _atom_site_fract_z
  _atom_site_occupancy
  Li  Li1       1.0  0.6709963369627445  0.656671791207323  0.6205284319515698  1.0000
  O   O1        1.0  0.9542258657134113  0.9057711416888594  0.15308586558576387  1.0000
  O   O2        1.0  0.14877105885478548  0.34390736949693745  0.9885394352101216  1.0000
  O   O3        1.0  0.45804165267888663  0.9884063287091394  0.7118375449027141  1.0000
  O   O4        1.0  0.09203661686444065  0.2114378275009159  0.7712423670336221  1.0000
  O   O5        1.0  0.07688489805198628  0.04691408637855332  0.15339409663080517  1.0000
  O   O6        1.0  0.5745217162271334  0.5380034432045306  0.9387808155516169  1.0000
  O   O7        1.0  0.35928578476240247  0.7175801801521953  0.7827511001531491  1.0000
  O   O8        1.0  0.8859456651716773  0.9310965296252558  0.661421753782796  1.0000
