data_image0
_chemical_formula_structural       LiO8
_chemical_formula_sum              "Li1 O8"
_cell_length_a       5.249754507535302
_cell_length_b       5.413199314268996
_cell_length_c       5.41221408469246
_cell_angle_alpha    66.06793548132961
_cell_angle_beta     55.04984107024682
_cell_angle_gamma    55.053804050826955

_space_group_name_H-M_alt    "P 1"
_space_group_IT_number       1

loop_
  _space_group_symop_operation_xyz
  'x, y, z'

loop_
  _atom_site_type_symbol
  _atom_site_label
  _atom_site_symmetry_multiplicity
  _atom_site_fract_x
  _atom_site_fract_y
  _atom_site_fract_z
  _atom_site_occupancy
  Li  Li1       1.0  0.37388751348973415  0.21785826145622877  0.17542245178890425  1.0000
  O   O1        1.0  0.2335657129297033  0.28016976043677744  0.05100860611695168  1.0000
  O   O2        1.0  0.08364883919209376  0.24404416766697778  0.5841514572421502  1.0000
  O   O3        1.0  0.8242830234939049  0.6004462789935623  0.13507052719900514  1.0000
  O   O4        1.0  0.9098775218912252  0.5692085086547802  0.7816429901561861  1.0000
  O   O5        1.0  0.012110469311437555  0.2237143946385345  0.9262818839555536  1.0000
  O   O6        1.0  0.5893699732962854  0.296513013979407  0.8827667399742367  1.0000
  O   O7        1.0  0.11784610384992966  0.8716236699175015  0.6567488913036197  1.0000
  O   O8        1.0  0.5542795538529965  0.15303207809404995  0.7670676218552626  1.0000
