data_image0
_chemical_formula_structural       LiO8
_chemical_formula_sum              "Li1 O8"
_cell_length_a       5.249754507535302
_cell_length_b       5.413199314268996
_cell_length_c       5.41221408469246
_cell_angle_alpha    66.06793548132961
_cell_angle_beta     55.04984107024682
_cell_angle_gamma    55.053804050826955

_space_group_name_H-M_alt    "P 1"
_space_group_IT_number       1

loop_
  _space_group_symop_operation_xyz
  'x, y, z'

loop_
  _atom_site_type_symbol
  _atom_site_label
  _atom_site_symmetry_multiplicity
  _atom_site_fract_x
  _atom_site_fract_y
  _atom_site_fract_z
  _atom_site_occupancy
  Li  Li1       1.0  0.6288355665180134  0.5630088344979143  0.23917009699253455  1.0000
  O   O1        1.0  0.20396882777426661  0.28483278329776507  0.8984275515396121  1.0000
  O   O2        1.0  0.969267547163124  0.7773522538570674  0.05493167778288921  1.0000
  O   O3        1.0  0.9347698532863902  0.321318234416502  0.7420049338480261  1.0000
  O   O4        1.0  0.12111840572054966  0.335588292840141  0.19639091827923494  1.0000
  O   O5        1.0  0.31555778984253724  0.6644028432425237  0.8786439757848594  1.0000
  O   O6        1.0  0.1737792618370113  0.9338222195161805  0.009693704617671717  1.0000
  O   O7        1.0  0.6808757121886231  0.48385551826256545  0.3523538839742031  1.0000
  O   O8        1.0  0.7848988419317564  0.27949187797969266  0.9102182425895502  1.0000
