data_image0
_chemical_formula_structural       LiO8
_chemical_formula_sum              "Li1 O8"
_cell_length_a       5.249754507535302
_cell_length_b       5.413199314268996
_cell_length_c       5.41221408469246
_cell_angle_alpha    66.06793548132961
_cell_angle_beta     55.04984107024682
_cell_angle_gamma    55.053804050826955

_space_group_name_H-M_alt    "P 1"
_space_group_IT_number       1

loop_
  _space_group_symop_operation_xyz
  'x, y, z'

loop_
  _atom_site_type_symbol
  _atom_site_label
  _atom_site_symmetry_multiplicity
  _atom_site_fract_x
  _atom_site_fract_y
  _atom_site_fract_z
  _atom_site_occupancy
  Li  Li1       1.0  0.6667201304211972  0.2856234908994715  0.8682180554410053  1.0000
  O   O1        1.0  0.4771537610078944  0.16969001025984554  0.38431095845264274  1.0000
  O   O2        1.0  0.19377625958623224  0.2016636342420135  0.5711418165852926  1.0000
  O   O3        1.0  0.2491174404335439  0.8387371928086687  0.3103525060070851  1.0000
  O   O4        1.0  0.18630761929929207  0.6781488958062312  0.07785351390889161  1.0000
  O   O5        1.0  0.20684298979635685  0.2356940341417797  0.0889916243925839  1.0000
  O   O6        1.0  0.26672979863967683  0.16303783267780858  0.520885875965666  1.0000
  O   O7        1.0  0.9679822851878619  0.9949350481812722  0.9120636368063089  1.0000
  O   O8        1.0  0.614612625966859  0.3090889827579151  0.969002781180107  1.0000
