data_image0
_chemical_formula_structural       LiO8
_chemical_formula_sum              "Li1 O8"
_cell_length_a       5.249754507535302
_cell_length_b       5.413199314268996
_cell_length_c       5.41221408469246
_cell_angle_alpha    66.06793548132961
_cell_angle_beta     55.04984107024682
_cell_angle_gamma    55.053804050826955

_space_group_name_H-M_alt    "P 1"
_space_group_IT_number       1

loop_
  _space_group_symop_operation_xyz
  'x, y, z'

loop_
  _atom_site_type_symbol
  _atom_site_label
  _atom_site_symmetry_multiplicity
  _atom_site_fract_x
  _atom_site_fract_y
  _atom_site_fract_z
  _atom_site_occupancy
  Li  Li1       1.0  0.2076049018838475  0.7840040515871749  0.7606331630254175  1.0000
  O   O1        1.0  0.965510816490486  0.8718202984375303  0.6152920239207162  1.0000
  O   O2        1.0  0.6010662097023065  0.08925255365833529  0.14371443588067123  1.0000
  O   O3        1.0  0.9418443691393676  0.5226217644582931  0.25805740901365937  1.0000
  O   O4        1.0  0.6712970814602137  0.7199821576796488  0.4355459076341148  1.0000
  O   O5        1.0  0.03128281252946152  0.3346114429351932  0.8746130741498447  1.0000
  O   O6        1.0  0.3778862575393944  0.8983410867071093  0.19567242991842448  1.0000
  O   O7        1.0  0.13851493775571555  0.4053213619374496  0.4653415729992645  1.0000
  O   O8        1.0  0.8379868678842541  0.7625140315918202  0.5238038336477722  1.0000
