data_image0
_chemical_formula_structural       LiO8
_chemical_formula_sum              "Li1 O8"
_cell_length_a       5.249754507535302
_cell_length_b       5.413199314268996
_cell_length_c       5.41221408469246
_cell_angle_alpha    66.06793548132961
_cell_angle_beta     55.04984107024682
_cell_angle_gamma    55.053804050826955

_space_group_name_H-M_alt    "P 1"
_space_group_IT_number       1

loop_
  _space_group_symop_operation_xyz
  'x, y, z'

loop_
  _atom_site_type_symbol
  _atom_site_label
  _atom_site_symmetry_multiplicity
  _atom_site_fract_x
  _atom_site_fract_y
  _atom_site_fract_z
  _atom_site_occupancy
  Li  Li1       1.0  0.2684287494971471  0.28465023199492023  0.1991588216311584  1.0000
  O   O1        1.0  0.48007511529741353  0.03651667792944302  0.5729272043690372  1.0000
  O   O2        1.0  0.7634082959800494  0.5767443097160623  0.01121183747230603  1.0000
  O   O3        1.0  0.5464681124519473  0.134138933685378  0.5267224951530256  1.0000
  O   O4        1.0  0.9786669765436482  0.848958243077778  0.5350451293850114  1.0000
  O   O5        1.0  0.1393224292068891  0.4925450307998531  0.8872794798264465  1.0000
  O   O6        1.0  0.18987076481769805  0.5505351285492612  0.5469737990528287  1.0000
  O   O7        1.0  0.23423620474897433  0.599094255360594  0.2216782035701783  1.0000
  O   O8        1.0  0.12443764527156631  0.4699958064317524  0.3431342110909039  1.0000
