data_image0
_chemical_formula_structural       LiO8
_chemical_formula_sum              "Li1 O8"
_cell_length_a       5.249754507535302
_cell_length_b       5.413199314268996
_cell_length_c       5.41221408469246
_cell_angle_alpha    66.06793548132961
_cell_angle_beta     55.04984107024682
_cell_angle_gamma    55.053804050826955

_space_group_name_H-M_alt    "P 1"
_space_group_IT_number       1

loop_
  _space_group_symop_operation_xyz
  'x, y, z'

loop_
  _atom_site_type_symbol
  _atom_site_label
  _atom_site_symmetry_multiplicity
  _atom_site_fract_x
  _atom_site_fract_y
  _atom_site_fract_z
  _atom_site_occupancy
  Li  Li1       1.0  0.8090938915680255  0.6765500146112302  0.9102406247007977  1.0000
  O   O1        1.0  0.4801492325081469  0.18061092262731648  0.7766736181972771  1.0000
  O   O2        1.0  0.14892084817021978  0.8892838633169404  0.8586278692402622  1.0000
  O   O3        1.0  0.2086524147541411  0.739296770952599  0.6304679078590922  1.0000
  O   O4        1.0  0.9850448605735522  0.1614980885659847  0.9463283729598402  1.0000
  O   O5        1.0  0.06782545436350063  0.19509484146083622  0.5945033702282743  1.0000
  O   O6        1.0  0.21118300609357754  0.19847011854102803  0.4180279367230071  1.0000
  O   O7        1.0  0.22309643272340196  0.3855810926916581  0.3700264070489183  1.0000
  O   O8        1.0  0.12346788465376912  0.09865702920188779  0.7292765826570005  1.0000
