data_image0
_chemical_formula_structural       LiO8
_chemical_formula_sum              "Li1 O8"
_cell_length_a       5.249754507535302
_cell_length_b       5.413199314268996
_cell_length_c       5.41221408469246
_cell_angle_alpha    66.06793548132961
_cell_angle_beta     55.04984107024682
_cell_angle_gamma    55.053804050826955

_space_group_name_H-M_alt    "P 1"
_space_group_IT_number       1

loop_
  _space_group_symop_operation_xyz
  'x, y, z'

loop_
  _atom_site_type_symbol
  _atom_site_label
  _atom_site_symmetry_multiplicity
  _atom_site_fract_x
  _atom_site_fract_y
  _atom_site_fract_z
  _atom_site_occupancy
  Li  Li1       1.0  0.9219729875201992  0.6955709853631618  0.5648497660258229  1.0000
  O   O1        1.0  0.4923625383907222  0.8697763806141481  0.5950088820023005  1.0000
  O   O2        1.0  0.33554351095537527  0.9137608199189096  0.9868574440604103  1.0000
  O   O3        1.0  0.7046197462314652  0.0401391776148472  0.2956705958057171  1.0000
  O   O4        1.0  0.8505772764793855  0.4558036518999202  0.1822433063617126  1.0000
  O   O5        1.0  0.6440305349400433  0.892430534173613  0.9947492222636165  1.0000
  O   O6        1.0  0.9079131479801958  0.8790854599995672  0.8944788964412353  1.0000
  O   O7        1.0  0.1794501117725531  0.8198876857993547  0.9186840609436189  1.0000
  O   O8        1.0  0.6707305202235077  0.8878747535192275  0.39812350106399563  1.0000
