data_image0
_chemical_formula_structural       LiO8
_chemical_formula_sum              "Li1 O8"
_cell_length_a       5.249754507535302
_cell_length_b       5.413199314268996
_cell_length_c       5.41221408469246
_cell_angle_alpha    66.06793548132961
_cell_angle_beta     55.04984107024682
_cell_angle_gamma    55.053804050826955

_space_group_name_H-M_alt    "P 1"
_space_group_IT_number       1

loop_
  _space_group_symop_operation_xyz
  'x, y, z'

loop_
  _atom_site_type_symbol
  _atom_site_label
  _atom_site_symmetry_multiplicity
  _atom_site_fract_x
  _atom_site_fract_y
  _atom_site_fract_z
  _atom_site_occupancy
  Li  Li1       1.0  0.03129826794886981  0.7901980581237353  0.05186212345491015  1.0000
  O   O1        1.0  0.20068128056346524  0.058785157312588154  0.6662109632942332  1.0000
  O   O2        1.0  0.32696523344752393  0.09623087274452757  0.5563771827406825  1.0000
  O   O3        1.0  0.0012397296276347447  0.5006680380439588  0.5294277100461002  1.0000
  O   O4        1.0  0.2612082268614202  0.9648251687695655  0.661760918035526  1.0000
  O   O5        1.0  0.22441791599634087  0.8747834637147793  0.76027899559584  1.0000
  O   O6        1.0  0.6293070984102938  0.49040909709297154  0.34583455489837434  1.0000
  O   O7        1.0  0.6196386929786679  0.4562130628849488  0.05626440437508862  1.0000
  O   O8        1.0  0.5118032645501032  0.7028481525965447  0.6527863339622826  1.0000
