data_image0
_chemical_formula_structural       LiO8
_chemical_formula_sum              "Li1 O8"
_cell_length_a       5.249754507535302
_cell_length_b       5.413199314268996
_cell_length_c       5.41221408469246
_cell_angle_alpha    66.06793548132961
_cell_angle_beta     55.04984107024682
_cell_angle_gamma    55.053804050826955

_space_group_name_H-M_alt    "P 1"
_space_group_IT_number       1

loop_
  _space_group_symop_operation_xyz
  'x, y, z'

loop_
  _atom_site_type_symbol
  _atom_site_label
  _atom_site_symmetry_multiplicity
  _atom_site_fract_x
  _atom_site_fract_y
  _atom_site_fract_z
  _atom_site_occupancy
  Li  Li1       1.0  0.10865853368804324  0.6973149337736544  0.2399006805768238  1.0000
  O   O1        1.0  0.6027311909480346  0.5014388332988275  0.1416972058405861  1.0000
  O   O2        1.0  0.2166395637369103  0.02513760431646972  0.026155108195730747  1.0000
  O   O3        1.0  0.42132857276634184  0.18793618936154124  0.533397098883345  1.0000
  O   O4        1.0  0.2314677792836335  0.6738920000049848  0.6904162420280215  1.0000
  O   O5        1.0  0.20019788587448772  0.6637385545873746  0.312610374749525  1.0000
  O   O6        1.0  0.8519064902754243  0.9467706995265459  0.9864938511952275  1.0000
  O   O7        1.0  0.4025511430063884  0.28597136503486986  0.8154671492927896  1.0000
  O   O8        1.0  0.43443500963705617  0.23920986285092738  0.41911912503241666  1.0000
