data_image0
_chemical_formula_structural       LiO8
_chemical_formula_sum              "Li1 O8"
_cell_length_a       5.249754507535302
_cell_length_b       5.413199314268996
_cell_length_c       5.41221408469246
_cell_angle_alpha    66.06793548132961
_cell_angle_beta     55.04984107024682
_cell_angle_gamma    55.053804050826955

_space_group_name_H-M_alt    "P 1"
_space_group_IT_number       1

loop_
  _space_group_symop_operation_xyz
  'x, y, z'

loop_
  _atom_site_type_symbol
  _atom_site_label
  _atom_site_symmetry_multiplicity
  _atom_site_fract_x
  _atom_site_fract_y
  _atom_site_fract_z
  _atom_site_occupancy
  Li  Li1       1.0  0.742508380864372  0.5978790879222444  0.012244499163550415  1.0000
  O   O1        1.0  0.02949996993385362  0.24928475181361165  0.3227463897315559  1.0000
  O   O2        1.0  0.8977366687630652  0.06844519119015402  0.20602601086370598  1.0000
  O   O3        1.0  0.5554886615520758  0.13270524866010192  0.2633767222683723  1.0000
  O   O4        1.0  0.8684579062667268  0.9249983850101131  0.3546428827830681  1.0000
  O   O5        1.0  0.10372121557153413  0.2941404206185574  0.29224509529360887  1.0000
  O   O6        1.0  0.02844133660739878  0.322996291160182  0.7532143803201237  1.0000
  O   O7        1.0  0.249582123368711  0.9863853957507693  0.6859323439557841  1.0000
  O   O8        1.0  0.47585476924949077  0.3806089500654366  0.13022494327089262  1.0000
