data_image0
_chemical_formula_structural       LiO8
_chemical_formula_sum              "Li1 O8"
_cell_length_a       5.249754507535302
_cell_length_b       5.413199314268996
_cell_length_c       5.41221408469246
_cell_angle_alpha    66.06793548132961
_cell_angle_beta     55.04984107024682
_cell_angle_gamma    55.053804050826955

_space_group_name_H-M_alt    "P 1"
_space_group_IT_number       1

loop_
  _space_group_symop_operation_xyz
  'x, y, z'

loop_
  _atom_site_type_symbol
  _atom_site_label
  _atom_site_symmetry_multiplicity
  _atom_site_fract_x
  _atom_site_fract_y
  _atom_site_fract_z
  _atom_site_occupancy
  Li  Li1       1.0  0.4351149329445363  0.37043469002862217  0.16954893258750658  1.0000
  O   O1        1.0  0.6558463724307086  0.2722006508275694  0.9220539153014542  1.0000
  O   O2        1.0  0.7370989218499417  0.31041126196704383  0.3036211255033372  1.0000
  O   O3        1.0  0.429304401253475  0.537667749959283  0.15654078021488083  1.0000
  O   O4        1.0  0.029506623547529642  0.6263251788891502  0.45280392025422866  1.0000
  O   O5        1.0  0.5844653865859435  0.24937996940511908  0.011405841499952274  1.0000
  O   O6        1.0  0.6585199329985851  0.8381726390385129  0.5854481782443514  1.0000
  O   O7        1.0  0.9468651423495089  0.27018129844866934  0.9481288915954025  1.0000
  O   O8        1.0  0.23366411351066851  0.9221411403891229  0.6890593517221966  1.0000
