data_image0
_chemical_formula_structural       LiO8
_chemical_formula_sum              "Li1 O8"
_cell_length_a       5.249754507535302
_cell_length_b       5.413199314268996
_cell_length_c       5.41221408469246
_cell_angle_alpha    66.06793548132961
_cell_angle_beta     55.04984107024682
_cell_angle_gamma    55.053804050826955

_space_group_name_H-M_alt    "P 1"
_space_group_IT_number       1

loop_
  _space_group_symop_operation_xyz
  'x, y, z'

loop_
  _atom_site_type_symbol
  _atom_site_label
  _atom_site_symmetry_multiplicity
  _atom_site_fract_x
  _atom_site_fract_y
  _atom_site_fract_z
  _atom_site_occupancy
  Li  Li1       1.0  0.46728985266401857  0.8243645651900309  0.31711685181892557  1.0000
  O   O1        1.0  0.9285271973779272  0.7198064038089829  0.9456387647489366  1.0000
  O   O2        1.0  0.5752862479499719  0.7841731562470056  0.014327769395242385  1.0000
  O   O3        1.0  0.6631598882052021  0.9072518896478456  0.9471896907210642  1.0000
  O   O4        1.0  0.6782845813462863  0.7820425835908686  0.8865494748885361  1.0000
  O   O5        1.0  0.4267597212444585  0.871657604128778  0.38854512277199404  1.0000
  O   O6        1.0  0.15198488657671128  0.40352997700813376  0.3959872560092661  1.0000
  O   O7        1.0  0.8333533157628388  0.6305759035979612  0.10335572294505191  1.0000
  O   O8        1.0  0.7125060187567627  0.9990360671188796  0.18154797187378824  1.0000
