data_image0
_chemical_formula_structural       LiO8
_chemical_formula_sum              "Li1 O8"
_cell_length_a       5.249754507535302
_cell_length_b       5.413199314268996
_cell_length_c       5.41221408469246
_cell_angle_alpha    66.06793548132961
_cell_angle_beta     55.04984107024682
_cell_angle_gamma    55.053804050826955

_space_group_name_H-M_alt    "P 1"
_space_group_IT_number       1

loop_
  _space_group_symop_operation_xyz
  'x, y, z'

loop_
  _atom_site_type_symbol
  _atom_site_label
  _atom_site_symmetry_multiplicity
  _atom_site_fract_x
  _atom_site_fract_y
  _atom_site_fract_z
  _atom_site_occupancy
  Li  Li1       1.0  0.2072407903483935  0.5455799154911247  0.9836398396918113  1.0000
  O   O1        1.0  0.34789419508696007  0.31770584053169904  0.3811878820826955  1.0000
  O   O2        1.0  0.13582941922658165  0.9795963731264896  0.5076103388487034  1.0000
  O   O3        1.0  0.1109465242920038  0.8752071601696656  0.25712877767740494  1.0000
  O   O4        1.0  0.8761563092475839  0.09125736259591122  0.06433624412816386  1.0000
  O   O5        1.0  0.086253671796241  0.923983639371329  0.16878396397535056  1.0000
  O   O6        1.0  0.8147223417915193  0.44166876782999154  0.18388290529733453  1.0000
  O   O7        1.0  0.229242042823131  0.1673852383754948  0.5737402867347186  1.0000
  O   O8        1.0  0.7497138703327089  0.23386003452857196  0.23984236198318598  1.0000
