data_image0
_chemical_formula_structural       LiO8
_chemical_formula_sum              "Li1 O8"
_cell_length_a       5.249754507535302
_cell_length_b       5.413199314268996
_cell_length_c       5.41221408469246
_cell_angle_alpha    66.06793548132961
_cell_angle_beta     55.04984107024682
_cell_angle_gamma    55.053804050826955

_space_group_name_H-M_alt    "P 1"
_space_group_IT_number       1

loop_
  _space_group_symop_operation_xyz
  'x, y, z'

loop_
  _atom_site_type_symbol
  _atom_site_label
  _atom_site_symmetry_multiplicity
  _atom_site_fract_x
  _atom_site_fract_y
  _atom_site_fract_z
  _atom_site_occupancy
  Li  Li1       1.0  0.08175904811099599  0.6376805741864473  0.8618704427722008  1.0000
  O   O1        1.0  0.9623358915946341  0.7698829402390048  0.361156801268649  1.0000
  O   O2        1.0  0.7712248541678868  0.9862285771863384  0.9421908738822182  1.0000
  O   O3        1.0  0.6244211862704034  0.16225290777791201  0.03463153177700207  1.0000
  O   O4        1.0  0.919377475733981  0.7077504431101465  0.836756723134414  1.0000
  O   O5        1.0  0.2887154059327628  0.7276310953309562  0.1052686787937347  1.0000
  O   O6        1.0  0.959791687768492  0.42885703895048977  0.40423009180823044  1.0000
  O   O7        1.0  0.26142773142619014  0.20161374316099456  0.013310671159207033  1.0000
  O   O8        1.0  0.20168024322837397  0.666780112369814  0.18645999957858983  1.0000
