data_image0
_chemical_formula_structural       LiO8
_chemical_formula_sum              "Li1 O8"
_cell_length_a       5.249754507535302
_cell_length_b       5.413199314268996
_cell_length_c       5.41221408469246
_cell_angle_alpha    66.06793548132961
_cell_angle_beta     55.04984107024682
_cell_angle_gamma    55.053804050826955

_space_group_name_H-M_alt    "P 1"
_space_group_IT_number       1

loop_
  _space_group_symop_operation_xyz
  'x, y, z'

loop_
  _atom_site_type_symbol
  _atom_site_label
  _atom_site_symmetry_multiplicity
  _atom_site_fract_x
  _atom_site_fract_y
  _atom_site_fract_z
  _atom_site_occupancy
  Li  Li1       1.0  0.4076196862421213  0.6993291307587945  0.4386253632918766  1.0000
  O   O1        1.0  0.8594963611690503  0.6478102128342371  0.6740550189759134  1.0000
  O   O2        1.0  0.5351544134163495  0.6991020024287513  0.013525550704716949  1.0000
  O   O3        1.0  0.4258501438468869  0.16722916203232785  0.4895200271899043  1.0000
  O   O4        1.0  0.8251703480385437  0.8840892473095643  0.5517621004411524  1.0000
  O   O5        1.0  0.6179646422670686  0.4096232391086474  0.4725425765685145  1.0000
  O   O6        1.0  0.9468774384119598  0.45130166147476913  0.8201728359530893  1.0000
  O   O7        1.0  0.48181311545911854  0.6608716932261061  0.29243317286437076  1.0000
  O   O8        1.0  0.2873217032244204  0.6518517709135025  0.7096650584686115  1.0000
