data_image0
_chemical_formula_structural       LiO8
_chemical_formula_sum              "Li1 O8"
_cell_length_a       5.249754507535302
_cell_length_b       5.413199314268996
_cell_length_c       5.41221408469246
_cell_angle_alpha    66.06793548132961
_cell_angle_beta     55.04984107024682
_cell_angle_gamma    55.053804050826955

_space_group_name_H-M_alt    "P 1"
_space_group_IT_number       1

loop_
  _space_group_symop_operation_xyz
  'x, y, z'

loop_
  _atom_site_type_symbol
  _atom_site_label
  _atom_site_symmetry_multiplicity
  _atom_site_fract_x
  _atom_site_fract_y
  _atom_site_fract_z
  _atom_site_occupancy
  Li  Li1       1.0  0.48482929028412514  0.2662143309297136  0.7623551940533773  1.0000
  O   O1        1.0  0.5194269636887654  0.7981485984827614  0.5351074204426496  1.0000
  O   O2        1.0  0.4410194156638063  0.8541511425047688  0.40428781410481207  1.0000
  O   O3        1.0  0.9255410244916078  0.29108937524102174  0.6704872295591713  1.0000
  O   O4        1.0  0.5326454455774368  0.8458205271869144  0.8604913432602785  1.0000
  O   O5        1.0  0.36287137754862897  0.13323255507386378  0.19101409112043655  1.0000
  O   O6        1.0  0.5639922395113406  0.528447124725929  0.06458239634420693  1.0000
  O   O7        1.0  0.8728408354231441  0.9971420330160474  0.36478591515118985  1.0000
  O   O8        1.0  0.33253197677729496  0.06033456711861618  0.9034913175959751  1.0000
