data_image0
_chemical_formula_structural       LiO8
_chemical_formula_sum              "Li1 O8"
_cell_length_a       5.249754507535302
_cell_length_b       5.413199314268996
_cell_length_c       5.41221408469246
_cell_angle_alpha    66.06793548132961
_cell_angle_beta     55.04984107024682
_cell_angle_gamma    55.053804050826955

_space_group_name_H-M_alt    "P 1"
_space_group_IT_number       1

loop_
  _space_group_symop_operation_xyz
  'x, y, z'

loop_
  _atom_site_type_symbol
  _atom_site_label
  _atom_site_symmetry_multiplicity
  _atom_site_fract_x
  _atom_site_fract_y
  _atom_site_fract_z
  _atom_site_occupancy
  Li  Li1       1.0  0.46528449197151645  0.8389200667401013  0.18849199891061375  1.0000
  O   O1        1.0  0.1198655323276192  0.5528944616686426  0.6479951865958711  1.0000
  O   O2        1.0  0.0899180623922966  0.6000542408566076  0.9260868284592192  1.0000
  O   O3        1.0  0.3251653880571084  0.5884780899387501  0.5651182998433555  1.0000
  O   O4        1.0  0.3463712869111717  0.3625386889113065  0.5762274091347592  1.0000
  O   O5        1.0  0.047912681807801505  0.03231242844032067  0.696776828760818  1.0000
  O   O6        1.0  0.8568966469787682  0.8817129170323597  0.7128641843803294  1.0000
  O   O7        1.0  0.09207790206670108  0.29716956500859126  0.875004255119368  1.0000
  O   O8        1.0  0.6123874198677157  0.6855582367804942  0.5802652162644293  1.0000
