data_image0
_chemical_formula_structural       LiO8
_chemical_formula_sum              "Li1 O8"
_cell_length_a       5.249754507535302
_cell_length_b       5.413199314268996
_cell_length_c       5.41221408469246
_cell_angle_alpha    66.06793548132961
_cell_angle_beta     55.04984107024682
_cell_angle_gamma    55.053804050826955

_space_group_name_H-M_alt    "P 1"
_space_group_IT_number       1

loop_
  _space_group_symop_operation_xyz
  'x, y, z'

loop_
  _atom_site_type_symbol
  _atom_site_label
  _atom_site_symmetry_multiplicity
  _atom_site_fract_x
  _atom_site_fract_y
  _atom_site_fract_z
  _atom_site_occupancy
  Li  Li1       1.0  0.17959758967738537  0.4929120731320751  0.7472161075269597  1.0000
  O   O1        1.0  0.0685588754649924  0.32020847876385905  0.875662997806181  1.0000
  O   O2        1.0  0.6513008663633837  0.04251961262921489  0.5475034328298634  1.0000
  O   O3        1.0  0.03838888086946923  0.302889974032837  0.05083476785725338  1.0000
  O   O4        1.0  0.9186733006666792  0.7592215657336148  0.4275454862953154  1.0000
  O   O5        1.0  0.353088152947974  0.5987903158713053  0.26715759698099006  1.0000
  O   O6        1.0  0.9235557505729783  0.8924353523583641  0.9370765771330944  1.0000
  O   O7        1.0  0.36875039304588597  0.9386680177444866  0.7116106786780847  1.0000
  O   O8        1.0  0.5904265294701361  0.17246731663654558  0.5819423777777573  1.0000
