data_image0
_chemical_formula_structural       LiO8
_chemical_formula_sum              "Li1 O8"
_cell_length_a       5.249754507535302
_cell_length_b       5.413199314268996
_cell_length_c       5.41221408469246
_cell_angle_alpha    66.06793548132961
_cell_angle_beta     55.04984107024682
_cell_angle_gamma    55.053804050826955

_space_group_name_H-M_alt    "P 1"
_space_group_IT_number       1

loop_
  _space_group_symop_operation_xyz
  'x, y, z'

loop_
  _atom_site_type_symbol
  _atom_site_label
  _atom_site_symmetry_multiplicity
  _atom_site_fract_x
  _atom_site_fract_y
  _atom_site_fract_z
  _atom_site_occupancy
  Li  Li1       1.0  0.8147845255655568  0.18242085553472975  0.784839490643563  1.0000
  O   O1        1.0  0.5769110317255439  0.10538635933469243  0.5889962073644597  1.0000
  O   O2        1.0  0.7587283009537064  0.08248191760650059  0.6057587075539956  1.0000
  O   O3        1.0  0.18537426736692453  0.7246393312200237  0.5134753497929836  1.0000
  O   O4        1.0  0.4702996447289536  0.7796286584437322  0.1887496506535058  1.0000
  O   O5        1.0  0.5344873698804946  0.2193226614943704  0.29221997775964326  1.0000
  O   O6        1.0  0.4811483584027645  0.8626642807595601  0.5552345118099815  1.0000
  O   O7        1.0  0.4831223652824588  0.2897092044124374  0.8396182232621641  1.0000
  O   O8        1.0  0.9219457714795567  0.3785760948963173  0.5685047321269394  1.0000
