data_image0
_chemical_formula_structural       LiO8
_chemical_formula_sum              "Li1 O8"
_cell_length_a       5.249754507535302
_cell_length_b       5.413199314268996
_cell_length_c       5.41221408469246
_cell_angle_alpha    66.06793548132961
_cell_angle_beta     55.04984107024682
_cell_angle_gamma    55.053804050826955

_space_group_name_H-M_alt    "P 1"
_space_group_IT_number       1

loop_
  _space_group_symop_operation_xyz
  'x, y, z'

loop_
  _atom_site_type_symbol
  _atom_site_label
  _atom_site_symmetry_multiplicity
  _atom_site_fract_x
  _atom_site_fract_y
  _atom_site_fract_z
  _atom_site_occupancy
  Li  Li1       1.0  0.40965022095333126  0.44699296735594096  0.013411947574965666  1.0000
  O   O1        1.0  0.5804210046541058  0.3706964806192232  0.6826064050343348  1.0000
  O   O2        1.0  0.6223163287541089  0.6281523359649483  0.9295572965383165  1.0000
  O   O3        1.0  0.34576423616339014  0.5951813210808652  0.9360219768837652  1.0000
  O   O4        1.0  0.1628734925199531  0.4925768737883107  0.9952048044973836  1.0000
  O   O5        1.0  0.5416014402268274  0.07094276243628883  0.3721960210120656  1.0000
  O   O6        1.0  0.3757320104759655  0.7415009080100958  0.8781210087477049  1.0000
  O   O7        1.0  0.25868666139646734  0.6396700389932928  0.7647078337211042  1.0000
  O   O8        1.0  0.7946071064459996  0.5801967068111367  0.20188440830947285  1.0000
