data_image0
_chemical_formula_structural       LiO8
_chemical_formula_sum              "Li1 O8"
_cell_length_a       5.249754507535302
_cell_length_b       5.413199314268996
_cell_length_c       5.41221408469246
_cell_angle_alpha    66.06793548132961
_cell_angle_beta     55.04984107024682
_cell_angle_gamma    55.053804050826955

_space_group_name_H-M_alt    "P 1"
_space_group_IT_number       1

loop_
  _space_group_symop_operation_xyz
  'x, y, z'

loop_
  _atom_site_type_symbol
  _atom_site_label
  _atom_site_symmetry_multiplicity
  _atom_site_fract_x
  _atom_site_fract_y
  _atom_site_fract_z
  _atom_site_occupancy
  Li  Li1       1.0  0.06727217538593777  0.4082960459232652  0.6493048444108638  1.0000
  O   O1        1.0  0.6083794585867253  0.4045314611802482  0.5769791038465257  1.0000
  O   O2        1.0  0.1580825736664897  0.42469922217017597  0.9075193072149546  1.0000
  O   O3        1.0  0.37397824938904023  0.2929591151123141  0.8020894467239295  1.0000
  O   O4        1.0  0.5543605281985435  0.08085460707740211  0.03612041149776246  1.0000
  O   O5        1.0  0.9609912191370142  0.5435676274511536  0.1379964594249401  1.0000
  O   O6        1.0  0.18947396751532608  0.1253104648950476  0.6901474406346146  1.0000
  O   O7        1.0  0.10929863232085246  0.5687502495122274  0.4615564408634256  1.0000
  O   O8        1.0  0.6352205200977679  0.4983605010315273  0.5059529167260095  1.0000
