data_image0
_chemical_formula_structural       LiO8
_chemical_formula_sum              "Li1 O8"
_cell_length_a       5.249754507535302
_cell_length_b       5.413199314268996
_cell_length_c       5.41221408469246
_cell_angle_alpha    66.06793548132961
_cell_angle_beta     55.04984107024682
_cell_angle_gamma    55.053804050826955

_space_group_name_H-M_alt    "P 1"
_space_group_IT_number       1

loop_
  _space_group_symop_operation_xyz
  'x, y, z'

loop_
  _atom_site_type_symbol
  _atom_site_label
  _atom_site_symmetry_multiplicity
  _atom_site_fract_x
  _atom_site_fract_y
  _atom_site_fract_z
  _atom_site_occupancy
  Li  Li1       1.0  0.44621902937671365  0.2935740339137354  0.9697342231829893  1.0000
  O   O1        1.0  0.045878891902377816  0.14426641941693763  0.1064263788896449  1.0000
  O   O2        1.0  0.972481037918353  0.7220823946086998  0.6455956357146349  1.0000
  O   O3        1.0  0.4984650730240574  0.1695507974322723  0.3057978046478951  1.0000
  O   O4        1.0  0.5076032441679388  0.16555227184920085  0.7724313437781731  1.0000
  O   O5        1.0  0.4325119115283407  0.3881407658290179  0.8311723511418858  1.0000
  O   O6        1.0  0.579885174569768  0.6912506890192205  0.061985364618031724  1.0000
  O   O7        1.0  0.1344524278527075  0.25917991971267185  0.2675918129358479  1.0000
  O   O8        1.0  0.12109557846816799  0.3613206073435471  0.4315550355368183  1.0000
