data_image0
_chemical_formula_structural       LiO8
_chemical_formula_sum              "Li1 O8"
_cell_length_a       5.249754507535302
_cell_length_b       5.413199314268996
_cell_length_c       5.41221408469246
_cell_angle_alpha    66.06793548132961
_cell_angle_beta     55.04984107024682
_cell_angle_gamma    55.053804050826955

_space_group_name_H-M_alt    "P 1"
_space_group_IT_number       1

loop_
  _space_group_symop_operation_xyz
  'x, y, z'

loop_
  _atom_site_type_symbol
  _atom_site_label
  _atom_site_symmetry_multiplicity
  _atom_site_fract_x
  _atom_site_fract_y
  _atom_site_fract_z
  _atom_site_occupancy
  Li  Li1       1.0  0.8979028724550346  0.08090025495378939  0.3377177435119094  1.0000
  O   O1        1.0  0.2731432973129131  0.6554889642928501  0.4098202045691579  1.0000
  O   O2        1.0  0.6370715221393333  0.9898314807977329  0.9980439424955634  1.0000
  O   O3        1.0  0.16145713036850395  0.1881775801732566  0.06323381921316695  1.0000
  O   O4        1.0  0.6029064500622283  0.335601147135586  0.11715843345399435  1.0000
  O   O5        1.0  0.8531090826799783  0.3551081468184556  0.7791481398003981  1.0000
  O   O6        1.0  0.6229634065938452  0.4513318836388791  0.7229012786572255  1.0000
  O   O7        1.0  0.10317414732816754  0.9219166753169095  0.42149368150170474  1.0000
  O   O8        1.0  0.37905452086865665  0.2640769974817516  0.6313398381100717  1.0000
