data_image0
_chemical_formula_structural       LiO8
_chemical_formula_sum              "Li1 O8"
_cell_length_a       5.249754507535302
_cell_length_b       5.413199314268996
_cell_length_c       5.41221408469246
_cell_angle_alpha    66.06793548132961
_cell_angle_beta     55.04984107024682
_cell_angle_gamma    55.053804050826955

_space_group_name_H-M_alt    "P 1"
_space_group_IT_number       1

loop_
  _space_group_symop_operation_xyz
  'x, y, z'

loop_
  _atom_site_type_symbol
  _atom_site_label
  _atom_site_symmetry_multiplicity
  _atom_site_fract_x
  _atom_site_fract_y
  _atom_site_fract_z
  _atom_site_occupancy
  Li  Li1       1.0  0.8376939509059653  0.7174728284642029  0.7329165858047872  1.0000
  O   O1        1.0  0.22768500342580467  0.1704419272400628  0.7221775548769926  1.0000
  O   O2        1.0  0.7644140767302936  0.17422765356072745  0.08577974890147821  1.0000
  O   O3        1.0  0.2721808056159958  0.03274683218283769  0.16796054610043853  1.0000
  O   O4        1.0  0.16733234472818648  0.6077713706943655  0.7550736949776464  1.0000
  O   O5        1.0  0.8817477634354205  0.9399382215759751  0.5196095007112413  1.0000
  O   O6        1.0  0.17025068435119195  0.592650440684789  0.5234760230414395  1.0000
  O   O7        1.0  0.7091288687731421  0.7538675165505104  0.74910780536392  1.0000
  O   O8        1.0  0.20540153471682032  0.19124982560270976  0.07069937921996328  1.0000
