data_image0
_chemical_formula_structural       LiO8
_chemical_formula_sum              "Li1 O8"
_cell_length_a       5.249754507535302
_cell_length_b       5.413199314268996
_cell_length_c       5.41221408469246
_cell_angle_alpha    66.06793548132961
_cell_angle_beta     55.04984107024682
_cell_angle_gamma    55.053804050826955

_space_group_name_H-M_alt    "P 1"
_space_group_IT_number       1

loop_
  _space_group_symop_operation_xyz
  'x, y, z'

loop_
  _atom_site_type_symbol
  _atom_site_label
  _atom_site_symmetry_multiplicity
  _atom_site_fract_x
  _atom_site_fract_y
  _atom_site_fract_z
  _atom_site_occupancy
  Li  Li1       1.0  0.36396315398110346  0.42216233357113353  0.3889005573906026  1.0000
  O   O1        1.0  0.4597137911403295  0.9761557171112223  0.5668734898737071  1.0000
  O   O2        1.0  0.6114254829763368  0.697321280444779  0.872177763653113  1.0000
  O   O3        1.0  0.8029403112867541  0.4418219859286694  0.9236389316734783  1.0000
  O   O4        1.0  0.0874822025710813  0.5479015571697587  0.3734743558072253  1.0000
  O   O5        1.0  0.4416681387045287  0.5177136891559684  0.8418002504726125  1.0000
  O   O6        1.0  0.23448917918009293  0.33931059805341235  0.7869106975021234  1.0000
  O   O7        1.0  0.12494143995759543  0.12402526723679941  0.18434258529945957  1.0000
  O   O8        1.0  0.22301591492173145  0.7182526545267862  0.7236905943915808  1.0000
