data_image0
_chemical_formula_structural       LiO8
_chemical_formula_sum              "Li1 O8"
_cell_length_a       5.249754507535302
_cell_length_b       5.413199314268996
_cell_length_c       5.41221408469246
_cell_angle_alpha    66.06793548132961
_cell_angle_beta     55.04984107024682
_cell_angle_gamma    55.053804050826955

_space_group_name_H-M_alt    "P 1"
_space_group_IT_number       1

loop_
  _space_group_symop_operation_xyz
  'x, y, z'

loop_
  _atom_site_type_symbol
  _atom_site_label
  _atom_site_symmetry_multiplicity
  _atom_site_fract_x
  _atom_site_fract_y
  _atom_site_fract_z
  _atom_site_occupancy
  Li  Li1       1.0  0.8108386842666846  0.4020553207336057  0.20786833286988093  1.0000
  O   O1        1.0  0.9786064816340183  0.5936935058531763  0.8461363670990387  1.0000
  O   O2        1.0  0.8709755517610489  0.16868102391727735  0.4194885967306021  1.0000
  O   O3        1.0  0.40261071119363834  0.34852110754446386  0.8542314002332176  1.0000
  O   O4        1.0  0.2988559545016827  0.36132769071123505  0.1468676985126649  1.0000
  O   O5        1.0  0.6438073479407365  0.306474185119642  0.7655562421898665  1.0000
  O   O6        1.0  0.1900394294673795  0.2628772041064025  0.8564354154663762  1.0000
  O   O7        1.0  0.21360247222272122  0.4248165942888633  0.8668417114975924  1.0000
  O   O8        1.0  0.7785507157096845  0.3198297357528759  0.17221766944840766  1.0000
