data_image0
_chemical_formula_structural       LiO8
_chemical_formula_sum              "Li1 O8"
_cell_length_a       5.249754507535302
_cell_length_b       5.413199314268996
_cell_length_c       5.41221408469246
_cell_angle_alpha    66.06793548132961
_cell_angle_beta     55.04984107024682
_cell_angle_gamma    55.053804050826955

_space_group_name_H-M_alt    "P 1"
_space_group_IT_number       1

loop_
  _space_group_symop_operation_xyz
  'x, y, z'

loop_
  _atom_site_type_symbol
  _atom_site_label
  _atom_site_symmetry_multiplicity
  _atom_site_fract_x
  _atom_site_fract_y
  _atom_site_fract_z
  _atom_site_occupancy
  Li  Li1       1.0  0.02602519980379725  0.23625219313213108  0.6410670401433123  1.0000
  O   O1        1.0  0.5505588219959563  0.4551112296994475  0.8305555871416459  1.0000
  O   O2        1.0  0.10970191075747726  0.40869898550842265  0.0002571319853927889  1.0000
  O   O3        1.0  0.18601089533032678  0.6927323633947458  0.1004634673458824  1.0000
  O   O4        1.0  0.6607197866305086  0.3410007490856728  0.8131711623274498  1.0000
  O   O5        1.0  0.3229255104815394  0.6891169771020031  0.3408273543424656  1.0000
  O   O6        1.0  0.8587621966077812  0.8389570209269568  0.08706006296645796  1.0000
  O   O7        1.0  0.269617925842351  0.7064508955900237  0.42174203716724534  1.0000
  O   O8        1.0  0.061485268747709654  0.6451366864652002  0.2066607294930023  1.0000
