data_image0
_chemical_formula_structural       LiO8
_chemical_formula_sum              "Li1 O8"
_cell_length_a       5.249754507535302
_cell_length_b       5.413199314268996
_cell_length_c       5.41221408469246
_cell_angle_alpha    66.06793548132961
_cell_angle_beta     55.04984107024682
_cell_angle_gamma    55.053804050826955

_space_group_name_H-M_alt    "P 1"
_space_group_IT_number       1

loop_
  _space_group_symop_operation_xyz
  'x, y, z'

loop_
  _atom_site_type_symbol
  _atom_site_label
  _atom_site_symmetry_multiplicity
  _atom_site_fract_x
  _atom_site_fract_y
  _atom_site_fract_z
  _atom_site_occupancy
  Li  Li1       1.0  0.4688158087617609  0.38967275553992664  0.0811528065583218  1.0000
  O   O1        1.0  0.4981045070603045  0.7716671819761984  0.933482757681287  1.0000
  O   O2        1.0  0.01317403671629691  0.06990948284582288  0.923631233744473  1.0000
  O   O3        1.0  0.9386553186443933  0.8973365365513786  0.7663064678190707  1.0000
  O   O4        1.0  0.8538666405027833  0.6825170142664163  0.7102687531971341  1.0000
  O   O5        1.0  0.31571689719463336  0.10191065513592434  0.5970408670703691  1.0000
  O   O6        1.0  0.4840800831970391  0.12327036841180572  0.1754643166586498  1.0000
  O   O7        1.0  0.07983678212487888  0.49608325008740106  0.41637582111696503  1.0000
  O   O8        1.0  0.5681449422385365  0.8058879286535063  0.7292148958175222  1.0000
