data_image0
_chemical_formula_structural       LiO8
_chemical_formula_sum              "Li1 O8"
_cell_length_a       5.249754507535302
_cell_length_b       5.413199314268996
_cell_length_c       5.41221408469246
_cell_angle_alpha    66.06793548132961
_cell_angle_beta     55.04984107024682
_cell_angle_gamma    55.053804050826955

_space_group_name_H-M_alt    "P 1"
_space_group_IT_number       1

loop_
  _space_group_symop_operation_xyz
  'x, y, z'

loop_
  _atom_site_type_symbol
  _atom_site_label
  _atom_site_symmetry_multiplicity
  _atom_site_fract_x
  _atom_site_fract_y
  _atom_site_fract_z
  _atom_site_occupancy
  Li  Li1       1.0  0.6279933783879486  0.0761960936633983  0.7212522791590814  1.0000
  O   O1        1.0  0.5823944806209695  0.22168117567083812  0.125833619436289  1.0000
  O   O2        1.0  0.5109378276121532  0.23973895800101452  0.27227053349013985  1.0000
  O   O3        1.0  0.3724974749894585  0.34009842134027224  0.6512466841197408  1.0000
  O   O4        1.0  0.2792808378687148  0.12059379719958585  0.15432340169931535  1.0000
  O   O5        1.0  0.3352726125662002  0.4844889001126509  0.3174258747562475  1.0000
  O   O6        1.0  0.8088359598663359  0.5174271909429242  0.19425435976439687  1.0000
  O   O7        1.0  0.9143172077636592  0.661754105841144  0.9575436548187355  1.0000
  O   O8        1.0  0.168106015822012  0.2960872870021909  0.86383540765679  1.0000
