data_image0
_chemical_formula_structural       LiO8
_chemical_formula_sum              "Li1 O8"
_cell_length_a       5.249754507535302
_cell_length_b       5.413199314268996
_cell_length_c       5.41221408469246
_cell_angle_alpha    66.06793548132961
_cell_angle_beta     55.04984107024682
_cell_angle_gamma    55.053804050826955

_space_group_name_H-M_alt    "P 1"
_space_group_IT_number       1

loop_
  _space_group_symop_operation_xyz
  'x, y, z'

loop_
  _atom_site_type_symbol
  _atom_site_label
  _atom_site_symmetry_multiplicity
  _atom_site_fract_x
  _atom_site_fract_y
  _atom_site_fract_z
  _atom_site_occupancy
  Li  Li1       1.0  0.9688848978416331  0.8425094351820697  0.9721586496367909  1.0000
  O   O1        1.0  0.1479240439070999  0.9856919432249884  0.3227406221768945  1.0000
  O   O2        1.0  0.22981821984331674  0.03566543678908474  0.6592962492589685  1.0000
  O   O3        1.0  0.631587580364247  0.8260608887369258  0.865939405582516  1.0000
  O   O4        1.0  0.3376635381008497  0.13014850449575555  0.04168483954330959  1.0000
  O   O5        1.0  0.31320856876366676  0.500747553786077  0.07071981805158778  1.0000
  O   O6        1.0  0.40417089245599325  0.9583439162642726  0.9334452458794882  1.0000
  O   O7        1.0  0.36196884952347474  0.33932647969128205  0.8849854806828716  1.0000
  O   O8        1.0  0.2279880360531692  0.7614232114525565  0.7134408832031802  1.0000
