data_image0
_chemical_formula_structural       LiO8
_chemical_formula_sum              "Li1 O8"
_cell_length_a       5.249754507535302
_cell_length_b       5.413199314268996
_cell_length_c       5.41221408469246
_cell_angle_alpha    66.06793548132961
_cell_angle_beta     55.04984107024682
_cell_angle_gamma    55.053804050826955

_space_group_name_H-M_alt    "P 1"
_space_group_IT_number       1

loop_
  _space_group_symop_operation_xyz
  'x, y, z'

loop_
  _atom_site_type_symbol
  _atom_site_label
  _atom_site_symmetry_multiplicity
  _atom_site_fract_x
  _atom_site_fract_y
  _atom_site_fract_z
  _atom_site_occupancy
  Li  Li1       1.0  0.1702285222989417  0.18385724236722112  0.6015636134845188  1.0000
  O   O1        1.0  0.6102751297522708  0.6359370359887717  0.0019632600797834243  1.0000
  O   O2        1.0  0.6674432265541839  0.28890444781459834  0.6045027937433929  1.0000
  O   O3        1.0  0.43104964202856877  0.7752939656003051  0.11475076937617601  1.0000
  O   O4        1.0  0.08644827604047589  0.264832800070117  0.123982200405103  1.0000
  O   O5        1.0  0.4337983315103706  0.3924150256068266  0.567601489181115  1.0000
  O   O6        1.0  0.41086113144012026  0.9105934211630711  0.7193526601128273  1.0000
  O   O7        1.0  0.8089354003152245  0.22337277688993673  0.40579897522397346  1.0000
  O   O8        1.0  0.5646425475135555  0.7440657916193629  0.2429424762646164  1.0000
