data_image0
_chemical_formula_structural       LiO8
_chemical_formula_sum              "Li1 O8"
_cell_length_a       5.249754507535302
_cell_length_b       5.413199314268996
_cell_length_c       5.41221408469246
_cell_angle_alpha    66.06793548132961
_cell_angle_beta     55.04984107024682
_cell_angle_gamma    55.053804050826955

_space_group_name_H-M_alt    "P 1"
_space_group_IT_number       1

loop_
  _space_group_symop_operation_xyz
  'x, y, z'

loop_
  _atom_site_type_symbol
  _atom_site_label
  _atom_site_symmetry_multiplicity
  _atom_site_fract_x
  _atom_site_fract_y
  _atom_site_fract_z
  _atom_site_occupancy
  Li  Li1       1.0  0.04683147172970337  0.8720248993398094  0.26349165125541063  1.0000
  O   O1        1.0  0.7424395429220549  0.30030226084300793  0.28894169892443955  1.0000
  O   O2        1.0  0.5351626690447873  0.20355258881492322  0.7037557410077184  1.0000
  O   O3        1.0  0.9450251516774486  0.0673874297445991  0.7539499067504423  1.0000
  O   O4        1.0  0.4471864573712834  0.44022254930102367  0.09030746183688976  1.0000
  O   O5        1.0  0.31672165929247953  0.5560920352897387  0.7749833529978538  1.0000
  O   O6        1.0  0.2944559458665328  0.3056602100654615  0.9504308027916633  1.0000
  O   O7        1.0  0.31224365922100006  0.08904700616681538  0.31562390740337776  1.0000
  O   O8        1.0  0.9270805526129529  0.6310120090077831  0.6642367224840271  1.0000
