data_image0
_chemical_formula_structural       LiO8
_chemical_formula_sum              "Li1 O8"
_cell_length_a       5.249754507535302
_cell_length_b       5.413199314268996
_cell_length_c       5.41221408469246
_cell_angle_alpha    66.06793548132961
_cell_angle_beta     55.04984107024682
_cell_angle_gamma    55.053804050826955

_space_group_name_H-M_alt    "P 1"
_space_group_IT_number       1

loop_
  _space_group_symop_operation_xyz
  'x, y, z'

loop_
  _atom_site_type_symbol
  _atom_site_label
  _atom_site_symmetry_multiplicity
  _atom_site_fract_x
  _atom_site_fract_y
  _atom_site_fract_z
  _atom_site_occupancy
  Li  Li1       1.0  0.47720625900500124  0.40926436464227756  0.6235371880886689  1.0000
  O   O1        1.0  0.8126481095113753  0.7270746931964638  0.12646499725243254  1.0000
  O   O2        1.0  0.6415871954264801  0.462199032884997  0.8944617130275176  1.0000
  O   O3        1.0  0.7647336351734992  0.922101789303575  0.9199753636925436  1.0000
  O   O4        1.0  0.15489876572744876  0.29618293805998164  0.6845118367435816  1.0000
  O   O5        1.0  0.2765477070788904  0.5237364815657983  0.708223995038388  1.0000
  O   O6        1.0  0.5968968175681315  0.21122195668662513  0.06128063512593229  1.0000
  O   O7        1.0  0.8514271432408798  0.32650028204719916  0.8124582905805724  1.0000
  O   O8        1.0  0.6507101723811832  0.9325094045018663  0.5536826209743229  1.0000
