data_image0
_chemical_formula_structural       LiO8
_chemical_formula_sum              "Li1 O8"
_cell_length_a       5.249754507535302
_cell_length_b       5.413199314268996
_cell_length_c       5.41221408469246
_cell_angle_alpha    66.06793548132961
_cell_angle_beta     55.04984107024682
_cell_angle_gamma    55.053804050826955

_space_group_name_H-M_alt    "P 1"
_space_group_IT_number       1

loop_
  _space_group_symop_operation_xyz
  'x, y, z'

loop_
  _atom_site_type_symbol
  _atom_site_label
  _atom_site_symmetry_multiplicity
  _atom_site_fract_x
  _atom_site_fract_y
  _atom_site_fract_z
  _atom_site_occupancy
  Li  Li1       1.0  0.6279993713158731  0.10480158447824905  0.5843175550159536  1.0000
  O   O1        1.0  0.4905352480232317  0.744240934944095  0.07784199068338893  1.0000
  O   O2        1.0  0.4037990887117453  0.7615919791688415  0.6647425586067239  1.0000
  O   O3        1.0  0.9712747769651884  0.650553755768982  0.40825259520425305  1.0000
  O   O4        1.0  0.7410148247115629  0.18198430288817136  0.874180402281219  1.0000
  O   O5        1.0  0.34945231064291704  0.7578991456113329  0.959344526136217  1.0000
  O   O6        1.0  0.22578267773556515  0.8022872588464054  0.1315349069669285  1.0000
  O   O7        1.0  0.6791329790175853  0.632208528967066  0.03042406102407824  1.0000
  O   O8        1.0  0.5612748619304879  0.15681752753576106  0.5751628464113718  1.0000
