data_image0
_chemical_formula_structural       LiO8
_chemical_formula_sum              "Li1 O8"
_cell_length_a       5.249754507535302
_cell_length_b       5.413199314268996
_cell_length_c       5.41221408469246
_cell_angle_alpha    66.06793548132961
_cell_angle_beta     55.04984107024682
_cell_angle_gamma    55.053804050826955

_space_group_name_H-M_alt    "P 1"
_space_group_IT_number       1

loop_
  _space_group_symop_operation_xyz
  'x, y, z'

loop_
  _atom_site_type_symbol
  _atom_site_label
  _atom_site_symmetry_multiplicity
  _atom_site_fract_x
  _atom_site_fract_y
  _atom_site_fract_z
  _atom_site_occupancy
  Li  Li1       1.0  0.9635861293014045  0.3096481780717859  0.3063589976182559  1.0000
  O   O1        1.0  0.6144150277074303  0.04703965687538947  0.49219906436145777  1.0000
  O   O2        1.0  0.9793539344006703  0.08829911201661256  0.04406514349018664  1.0000
  O   O3        1.0  0.10646949295050234  0.497759652794457  0.8330905994606539  1.0000
  O   O4        1.0  0.08346237105237897  0.5668517709683915  0.3058623286748281  1.0000
  O   O5        1.0  0.9978568393391498  0.5646339587148992  0.7521942907014925  1.0000
  O   O6        1.0  0.02803151265967152  0.1134618848706701  0.48340994587742614  1.0000
  O   O7        1.0  0.20256986798498744  0.0007113665938867086  0.25610561223899  1.0000
  O   O8        1.0  0.22995136757564794  0.3041367510522761  0.4961751489183115  1.0000
