data_image0
_chemical_formula_structural       LiO8
_chemical_formula_sum              "Li1 O8"
_cell_length_a       5.249754507535302
_cell_length_b       5.413199314268996
_cell_length_c       5.41221408469246
_cell_angle_alpha    66.06793548132961
_cell_angle_beta     55.04984107024682
_cell_angle_gamma    55.053804050826955

_space_group_name_H-M_alt    "P 1"
_space_group_IT_number       1

loop_
  _space_group_symop_operation_xyz
  'x, y, z'

loop_
  _atom_site_type_symbol
  _atom_site_label
  _atom_site_symmetry_multiplicity
  _atom_site_fract_x
  _atom_site_fract_y
  _atom_site_fract_z
  _atom_site_occupancy
  Li  Li1       1.0  0.6072479152535255  0.16888805691294095  0.05850163402284858  1.0000
  O   O1        1.0  0.09813771944877736  0.6037122731641196  0.6499070654408889  1.0000
  O   O2        1.0  0.17543261144822253  0.14623185006683093  0.6223486014079249  1.0000
  O   O3        1.0  0.07023854817602171  0.016643396285786594  0.7764932709231367  1.0000
  O   O4        1.0  0.1523955836098665  0.6597019134464199  0.35486215585313374  1.0000
  O   O5        1.0  0.11252541877419375  0.3511447745198374  0.9964924130707296  1.0000
  O   O6        1.0  0.15606355413665085  0.3232908159206964  0.2902034138706955  1.0000
  O   O7        1.0  0.5122456055715467  0.8405739588622421  0.5542609883310021  1.0000
  O   O8        1.0  0.7736395746955651  0.8429454513674131  0.24139483778701987  1.0000
