data_image0
_chemical_formula_structural       LiO8
_chemical_formula_sum              "Li1 O8"
_cell_length_a       5.249754507535302
_cell_length_b       5.413199314268996
_cell_length_c       5.41221408469246
_cell_angle_alpha    66.06793548132961
_cell_angle_beta     55.04984107024682
_cell_angle_gamma    55.053804050826955

_space_group_name_H-M_alt    "P 1"
_space_group_IT_number       1

loop_
  _space_group_symop_operation_xyz
  'x, y, z'

loop_
  _atom_site_type_symbol
  _atom_site_label
  _atom_site_symmetry_multiplicity
  _atom_site_fract_x
  _atom_site_fract_y
  _atom_site_fract_z
  _atom_site_occupancy
  Li  Li1       1.0  0.06117640763569199  0.4570781875522911  0.7201972276656328  1.0000
  O   O1        1.0  0.09154840666311514  0.65317463067775  0.33678444817014963  1.0000
  O   O2        1.0  0.5892785403270624  0.5193381546018365  0.5465683706232944  1.0000
  O   O3        1.0  0.780653130278111  0.17664386232860352  0.9960055103273362  1.0000
  O   O4        1.0  0.65981571429759  0.7770303222680717  0.9774463319193529  1.0000
  O   O5        1.0  0.16961037838122195  0.6624259369155823  0.7992597493184768  1.0000
  O   O6        1.0  0.17250292178258286  0.3636690607485207  0.8805132999686496  1.0000
  O   O7        1.0  0.219079948342781  0.5840799704327182  0.4012195287395883  1.0000
  O   O8        1.0  0.8037253738853867  0.7552163816865942  0.271436736751856  1.0000
