data_image0
_chemical_formula_structural       LiO8
_chemical_formula_sum              "Li1 O8"
_cell_length_a       5.249754507535302
_cell_length_b       5.413199314268996
_cell_length_c       5.41221408469246
_cell_angle_alpha    66.06793548132961
_cell_angle_beta     55.04984107024682
_cell_angle_gamma    55.053804050826955

_space_group_name_H-M_alt    "P 1"
_space_group_IT_number       1

loop_
  _space_group_symop_operation_xyz
  'x, y, z'

loop_
  _atom_site_type_symbol
  _atom_site_label
  _atom_site_symmetry_multiplicity
  _atom_site_fract_x
  _atom_site_fract_y
  _atom_site_fract_z
  _atom_site_occupancy
  Li  Li1       1.0  0.4815510156889147  0.3543383026506177  0.25988868400187926  1.0000
  O   O1        1.0  0.4104593045067193  0.7958467372731506  0.20544359489418085  1.0000
  O   O2        1.0  0.7502917301040899  0.05225981528901502  0.8600641683831434  1.0000
  O   O3        1.0  0.9441466723085128  0.6550159710829462  0.1414959872140713  1.0000
  O   O4        1.0  0.930911870982726  0.6815623316020378  0.4156002497742044  1.0000
  O   O5        1.0  0.6991159335581556  0.3145088606253772  0.8601212494507608  1.0000
  O   O6        1.0  0.556963685914905  0.7438375454285611  0.6584188457326654  1.0000
  O   O7        1.0  0.921187725510535  0.9144819717744817  0.7303826289077477  1.0000
  O   O8        1.0  0.0804923552729484  0.8291434623755656  0.5886512315750654  1.0000
