data_image0
_chemical_formula_structural       LiO8
_chemical_formula_sum              "Li1 O8"
_cell_length_a       5.249754507535302
_cell_length_b       5.413199314268996
_cell_length_c       5.41221408469246
_cell_angle_alpha    66.06793548132961
_cell_angle_beta     55.04984107024682
_cell_angle_gamma    55.053804050826955

_space_group_name_H-M_alt    "P 1"
_space_group_IT_number       1

loop_
  _space_group_symop_operation_xyz
  'x, y, z'

loop_
  _atom_site_type_symbol
  _atom_site_label
  _atom_site_symmetry_multiplicity
  _atom_site_fract_x
  _atom_site_fract_y
  _atom_site_fract_z
  _atom_site_occupancy
  Li  Li1       1.0  0.8286583231498525  0.44366670740048164  0.7844799436427152  1.0000
  O   O1        1.0  0.5062708218317482  0.07167457206357042  0.5052095608003526  1.0000
  O   O2        1.0  0.582301181676673  0.5581065086198862  0.32774792223499816  1.0000
  O   O3        1.0  0.3190213689331429  0.7055650882231461  0.7500209230258221  1.0000
  O   O4        1.0  0.008861476599719253  0.2506011645579749  0.4711930433757061  1.0000
  O   O5        1.0  0.13988588055146067  0.18270603590357481  0.9332981782948337  1.0000
  O   O6        1.0  0.3921256644107043  0.9282873266498441  0.07878795969513419  1.0000
  O   O7        1.0  0.9441527262384435  0.06138678894506722  0.6332157808964567  1.0000
  O   O8        1.0  0.8266267026628853  0.265384161812392  0.025456500575883112  1.0000
