data_image0
_chemical_formula_structural       LiO8
_chemical_formula_sum              "Li1 O8"
_cell_length_a       5.249754507535302
_cell_length_b       5.413199314268996
_cell_length_c       5.41221408469246
_cell_angle_alpha    66.06793548132961
_cell_angle_beta     55.04984107024682
_cell_angle_gamma    55.053804050826955

_space_group_name_H-M_alt    "P 1"
_space_group_IT_number       1

loop_
  _space_group_symop_operation_xyz
  'x, y, z'

loop_
  _atom_site_type_symbol
  _atom_site_label
  _atom_site_symmetry_multiplicity
  _atom_site_fract_x
  _atom_site_fract_y
  _atom_site_fract_z
  _atom_site_occupancy
  Li  Li1       1.0  0.5437067109378333  0.8366259854784488  0.6464952727011735  1.0000
  O   O1        1.0  0.6572722080239899  0.6701841691971211  0.5369337256078062  1.0000
  O   O2        1.0  0.8137254132696832  0.892243116296239  0.41013426039208767  1.0000
  O   O3        1.0  0.7440114980957588  0.12940378253480844  0.06834202215739538  1.0000
  O   O4        1.0  0.6606283290724351  0.6016034351344217  0.8826397608547296  1.0000
  O   O5        1.0  0.4560429552801466  0.1852820420397565  0.1575378441902906  1.0000
  O   O6        1.0  0.5690478498763198  0.12816067749486137  0.9962679134327814  1.0000
  O   O7        1.0  0.7607863716679404  0.7926714960805974  0.1642950068163458  1.0000
  O   O8        1.0  0.0186088949420693  0.43547963816749036  0.28567797528123506  1.0000
