data_image0
_chemical_formula_structural       LiO8
_chemical_formula_sum              "Li1 O8"
_cell_length_a       5.249754507535302
_cell_length_b       5.413199314268996
_cell_length_c       5.41221408469246
_cell_angle_alpha    66.06793548132961
_cell_angle_beta     55.04984107024682
_cell_angle_gamma    55.053804050826955

_space_group_name_H-M_alt    "P 1"
_space_group_IT_number       1

loop_
  _space_group_symop_operation_xyz
  'x, y, z'

loop_
  _atom_site_type_symbol
  _atom_site_label
  _atom_site_symmetry_multiplicity
  _atom_site_fract_x
  _atom_site_fract_y
  _atom_site_fract_z
  _atom_site_occupancy
  Li  Li1       1.0  0.15846207224168296  0.25325013863081125  0.08286175372459326  1.0000
  O   O1        1.0  0.21835597373799942  0.18728493581773975  0.11930788124639236  1.0000
  O   O2        1.0  0.9157322102734362  0.7038685170525678  0.1189960806971655  1.0000
  O   O3        1.0  0.45239081883686794  0.21293324603485075  0.40305461988873503  1.0000
  O   O4        1.0  0.7863892583775396  0.6188348602453217  0.0011373079160570398  1.0000
  O   O5        1.0  0.08583515680304288  0.8081202297291696  0.9747444454235943  1.0000
  O   O6        1.0  0.9294328145742483  0.9312726674102372  0.8887274191720032  1.0000
  O   O7        1.0  0.16130470313112255  0.9794103731320618  0.30542327852027995  1.0000
  O   O8        1.0  0.8753951637100315  0.21056250577558444  0.16691114230876813  1.0000
