data_image0
_chemical_formula_structural       LiO8
_chemical_formula_sum              "Li1 O8"
_cell_length_a       5.249754507535302
_cell_length_b       5.413199314268996
_cell_length_c       5.41221408469246
_cell_angle_alpha    66.06793548132961
_cell_angle_beta     55.04984107024682
_cell_angle_gamma    55.053804050826955

_space_group_name_H-M_alt    "P 1"
_space_group_IT_number       1

loop_
  _space_group_symop_operation_xyz
  'x, y, z'

loop_
  _atom_site_type_symbol
  _atom_site_label
  _atom_site_symmetry_multiplicity
  _atom_site_fract_x
  _atom_site_fract_y
  _atom_site_fract_z
  _atom_site_occupancy
  Li  Li1       1.0  0.6715824981384717  0.6207450200501476  0.5872251487249152  1.0000
  O   O1        1.0  0.20220911710466893  0.04450857095852356  0.8099659762707994  1.0000
  O   O2        1.0  0.9940594495980193  0.13910233313820086  0.2581335226011632  1.0000
  O   O3        1.0  0.4152356348108768  0.7817452756776575  0.5577227888801417  1.0000
  O   O4        1.0  0.9253276350882693  0.9097239625770719  0.05850193662396208  1.0000
  O   O5        1.0  0.00027003585752538584  0.7538115534686431  0.37121084595003495  1.0000
  O   O6        1.0  0.9516695243151778  0.7694407937564094  0.4724969256317415  1.0000
  O   O7        1.0  0.658442067788652  0.30189815475373294  0.12488643924304554  1.0000
  O   O8        1.0  0.14251760554148518  0.5588620615666073  0.5063672590065025  1.0000
