data_image0
_chemical_formula_structural       LiO8
_chemical_formula_sum              "Li1 O8"
_cell_length_a       5.249754507535302
_cell_length_b       5.413199314268996
_cell_length_c       5.41221408469246
_cell_angle_alpha    66.06793548132961
_cell_angle_beta     55.04984107024682
_cell_angle_gamma    55.053804050826955

_space_group_name_H-M_alt    "P 1"
_space_group_IT_number       1

loop_
  _space_group_symop_operation_xyz
  'x, y, z'

loop_
  _atom_site_type_symbol
  _atom_site_label
  _atom_site_symmetry_multiplicity
  _atom_site_fract_x
  _atom_site_fract_y
  _atom_site_fract_z
  _atom_site_occupancy
  Li  Li1       1.0  0.3921068964497607  0.2419931613657056  0.6925170150055919  1.0000
  O   O1        1.0  0.6194484786826493  0.5831503973458991  0.0377786034074461  1.0000
  O   O2        1.0  0.1939876007403214  0.4687648215020346  0.808684297288675  1.0000
  O   O3        1.0  0.244656776198525  0.20170464613354255  0.7307747337484791  1.0000
  O   O4        1.0  0.8114055286934079  0.3707197712504833  0.44054041212611894  1.0000
  O   O5        1.0  0.7963925135277528  0.7221393047878504  0.9766096755318898  1.0000
  O   O6        1.0  0.6353852418190504  0.8451201726745801  0.7842907079389088  1.0000
  O   O7        1.0  0.05996457592594595  0.12452628369607943  0.17320143799216225  1.0000
  O   O8        1.0  0.7208060721820431  0.7017388094701609  0.41057198529117045  1.0000
