data_image0
_chemical_formula_structural       LiO8
_chemical_formula_sum              "Li1 O8"
_cell_length_a       5.249754507535302
_cell_length_b       5.413199314268996
_cell_length_c       5.41221408469246
_cell_angle_alpha    66.06793548132961
_cell_angle_beta     55.04984107024682
_cell_angle_gamma    55.053804050826955

_space_group_name_H-M_alt    "P 1"
_space_group_IT_number       1

loop_
  _space_group_symop_operation_xyz
  'x, y, z'

loop_
  _atom_site_type_symbol
  _atom_site_label
  _atom_site_symmetry_multiplicity
  _atom_site_fract_x
  _atom_site_fract_y
  _atom_site_fract_z
  _atom_site_occupancy
  Li  Li1       1.0  0.4270320306224491  0.7084718570815838  0.097161628177314  1.0000
  O   O1        1.0  0.49907984764555735  0.7515400932917249  0.7814813921437356  1.0000
  O   O2        1.0  0.9208533541872583  0.4177642322620061  0.31349909338818804  1.0000
  O   O3        1.0  0.24213336831135734  0.7343377935304432  0.24288016916634803  1.0000
  O   O4        1.0  0.8824136947956163  0.6475115350983351  0.22815866524071282  1.0000
  O   O5        1.0  0.2795072977162505  0.8299540883503735  0.8626524236735413  1.0000
  O   O6        1.0  0.08427560143239887  0.9786812582041087  0.8028029020402054  1.0000
  O   O7        1.0  0.4549397030508615  0.5113859589854979  0.8528466168550466  1.0000
  O   O8        1.0  0.05019193573703262  0.23591362978844188  0.5683996496618064  1.0000
