data_image0
_chemical_formula_structural       LiO8
_chemical_formula_sum              "Li1 O8"
_cell_length_a       5.249754507535302
_cell_length_b       5.413199314268996
_cell_length_c       5.41221408469246
_cell_angle_alpha    66.06793548132961
_cell_angle_beta     55.04984107024682
_cell_angle_gamma    55.053804050826955

_space_group_name_H-M_alt    "P 1"
_space_group_IT_number       1

loop_
  _space_group_symop_operation_xyz
  'x, y, z'

loop_
  _atom_site_type_symbol
  _atom_site_label
  _atom_site_symmetry_multiplicity
  _atom_site_fract_x
  _atom_site_fract_y
  _atom_site_fract_z
  _atom_site_occupancy
  Li  Li1       1.0  0.9562886251783596  0.3790730789936845  0.9099434921511929  1.0000
  O   O1        1.0  0.5288192553903102  0.6451725164142843  0.9650015658741395  1.0000
  O   O2        1.0  0.6364052468556327  0.0795533933261936  0.1834810272830012  1.0000
  O   O3        1.0  0.37956625118049203  0.0691701911247975  0.23291477752070477  1.0000
  O   O4        1.0  0.5376335400939283  0.49212087324103493  0.028793697879166302  1.0000
  O   O5        1.0  0.39397113974399645  0.4733764939230021  0.8909135881974066  1.0000
  O   O6        1.0  0.6994365255325596  0.9201205487999076  0.5781416156255688  1.0000
  O   O7        1.0  0.9172509949426413  0.5631485588513847  0.07135686760669202  1.0000
  O   O8        1.0  0.7385731898945727  0.04981187621714511  0.8137990646954245  1.0000
