data_image0
_chemical_formula_structural       LiO8
_chemical_formula_sum              "Li1 O8"
_cell_length_a       5.249754507535302
_cell_length_b       5.413199314268996
_cell_length_c       5.41221408469246
_cell_angle_alpha    66.06793548132961
_cell_angle_beta     55.04984107024682
_cell_angle_gamma    55.053804050826955

_space_group_name_H-M_alt    "P 1"
_space_group_IT_number       1

loop_
  _space_group_symop_operation_xyz
  'x, y, z'

loop_
  _atom_site_type_symbol
  _atom_site_label
  _atom_site_symmetry_multiplicity
  _atom_site_fract_x
  _atom_site_fract_y
  _atom_site_fract_z
  _atom_site_occupancy
  Li  Li1       1.0  0.09005684230230315  0.8592337441518847  0.5726680009246614  1.0000
  O   O1        1.0  0.2779828142562337  0.6333315920028966  0.15628254830050814  1.0000
  O   O2        1.0  0.9755437696433571  0.008769315532068944  0.0511508694451237  1.0000
  O   O3        1.0  0.8170154001152454  0.36654088080352665  0.5084836012607354  1.0000
  O   O4        1.0  0.3848785965488801  0.4604410219424331  0.8063107565072016  1.0000
  O   O5        1.0  0.08944835630613568  0.4032474829717998  0.49542933524303834  1.0000
  O   O6        1.0  0.03869178090135428  0.11329540897964918  0.7749916461796804  1.0000
  O   O7        1.0  0.2868758320945304  0.5385506171956997  0.46054624102854547  1.0000
  O   O8        1.0  0.3799075217479775  0.24579442457200606  0.573979267646676  1.0000
