data_image0
_chemical_formula_structural       LiO8
_chemical_formula_sum              "Li1 O8"
_cell_length_a       5.249754507535302
_cell_length_b       5.413199314268996
_cell_length_c       5.41221408469246
_cell_angle_alpha    66.06793548132961
_cell_angle_beta     55.04984107024682
_cell_angle_gamma    55.053804050826955

_space_group_name_H-M_alt    "P 1"
_space_group_IT_number       1

loop_
  _space_group_symop_operation_xyz
  'x, y, z'

loop_
  _atom_site_type_symbol
  _atom_site_label
  _atom_site_symmetry_multiplicity
  _atom_site_fract_x
  _atom_site_fract_y
  _atom_site_fract_z
  _atom_site_occupancy
  Li  Li1       1.0  0.3401822462779336  0.03515627499301921  0.3880482342371643  1.0000
  O   O1        1.0  0.8298154090291945  0.15308042700202407  0.12034242276044438  1.0000
  O   O2        1.0  0.915240440768313  0.7820574252646839  0.8440699145176183  1.0000
  O   O3        1.0  0.6579990364915886  0.8065848884147755  0.8530830146925581  1.0000
  O   O4        1.0  0.6008595339908993  0.18211526932977762  0.9670870478781239  1.0000
  O   O5        1.0  0.7615091428589125  0.8506740636869452  0.3361409017341117  1.0000
  O   O6        1.0  0.37711869750100746  0.6506327525436291  0.5985061483095677  1.0000
  O   O7        1.0  0.5411230454196598  0.40118718610641757  0.3731839626207645  1.0000
  O   O8        1.0  0.5998445897070885  0.5788819563071428  0.5790046420111636  1.0000
