data_image0
_chemical_formula_structural       LiO8
_chemical_formula_sum              "Li1 O8"
_cell_length_a       5.249754507535302
_cell_length_b       5.413199314268996
_cell_length_c       5.41221408469246
_cell_angle_alpha    66.06793548132961
_cell_angle_beta     55.04984107024682
_cell_angle_gamma    55.053804050826955

_space_group_name_H-M_alt    "P 1"
_space_group_IT_number       1

loop_
  _space_group_symop_operation_xyz
  'x, y, z'

loop_
  _atom_site_type_symbol
  _atom_site_label
  _atom_site_symmetry_multiplicity
  _atom_site_fract_x
  _atom_site_fract_y
  _atom_site_fract_z
  _atom_site_occupancy
  Li  Li1       1.0  0.8962005453753648  0.6507413500664967  0.8182072553795905  1.0000
  O   O1        1.0  0.0123347004365435  0.07584689406083456  0.2515807306217326  1.0000
  O   O2        1.0  0.3989002163135211  0.8157867485357571  0.5472870220742294  1.0000
  O   O3        1.0  0.709097313809572  0.24080481749918548  0.34548498197047195  1.0000
  O   O4        1.0  0.13101986706367086  0.05621875097154572  0.21392833435260172  1.0000
  O   O5        1.0  0.6136923585300167  0.48603147115679946  0.421647292848931  1.0000
  O   O6        1.0  0.517011099804793  0.6414071587387014  0.6378252292700353  1.0000
  O   O7        1.0  0.5309889202633453  0.08905236271185024  0.7783900960474242  1.0000
  O   O8        1.0  0.0586728728188497  0.6199859425333116  0.4370097343972703  1.0000
