data_image0
_chemical_formula_structural       LiO8
_chemical_formula_sum              "Li1 O8"
_cell_length_a       5.249754507535302
_cell_length_b       5.413199314268996
_cell_length_c       5.41221408469246
_cell_angle_alpha    66.06793548132961
_cell_angle_beta     55.04984107024682
_cell_angle_gamma    55.053804050826955

_space_group_name_H-M_alt    "P 1"
_space_group_IT_number       1

loop_
  _space_group_symop_operation_xyz
  'x, y, z'

loop_
  _atom_site_type_symbol
  _atom_site_label
  _atom_site_symmetry_multiplicity
  _atom_site_fract_x
  _atom_site_fract_y
  _atom_site_fract_z
  _atom_site_occupancy
  Li  Li1       1.0  0.18087664967582384  0.8567109840286697  0.6591770490871056  1.0000
  O   O1        1.0  0.31837483690375734  0.39733112860859876  0.7069276599783478  1.0000
  O   O2        1.0  0.1276694721566356  0.06473238758316491  0.08043315926931882  1.0000
  O   O3        1.0  0.46272405447957965  0.8663173936446782  0.21762691461512418  1.0000
  O   O4        1.0  0.5378497147564225  0.1746500432219662  0.7555682410848021  1.0000
  O   O5        1.0  0.3696178941076198  0.11765054973773204  0.6691789343136705  1.0000
  O   O6        1.0  0.02660663156297005  0.6071022168198787  0.8128832619510149  1.0000
  O   O7        1.0  0.9870206493113898  0.26739411592305906  0.4745907474153839  1.0000
  O   O8        1.0  0.9833366066397895  0.5705155080826803  0.14816149766278386  1.0000
