data_image0
_chemical_formula_structural       LiO8
_chemical_formula_sum              "Li1 O8"
_cell_length_a       5.249754507535302
_cell_length_b       5.413199314268996
_cell_length_c       5.41221408469246
_cell_angle_alpha    66.06793548132961
_cell_angle_beta     55.04984107024682
_cell_angle_gamma    55.053804050826955

_space_group_name_H-M_alt    "P 1"
_space_group_IT_number       1

loop_
  _space_group_symop_operation_xyz
  'x, y, z'

loop_
  _atom_site_type_symbol
  _atom_site_label
  _atom_site_symmetry_multiplicity
  _atom_site_fract_x
  _atom_site_fract_y
  _atom_site_fract_z
  _atom_site_occupancy
  Li  Li1       1.0  0.5630450300826517  0.9817056633208026  0.9799132830816593  1.0000
  O   O1        1.0  0.6410778570712257  0.5228272108198198  0.7937636827382013  1.0000
  O   O2        1.0  0.522440725753448  0.12036227723115989  0.7165677830822368  1.0000
  O   O3        1.0  0.04216447848880733  0.8207334740526733  0.17873637315364732  1.0000
  O   O4        1.0  0.9158743435069212  0.02133344361821443  0.8065430183768658  1.0000
  O   O5        1.0  0.1822565889225416  0.3259572810045439  0.7217093119818898  1.0000
  O   O6        1.0  0.3185019529919727  0.006789366140790065  0.7578134740748985  1.0000
  O   O7        1.0  0.38971855904878794  0.6755761439398533  0.6135094243949606  1.0000
  O   O8        1.0  0.35553265897838315  0.4685766657174497  0.10231180107458826  1.0000
