data_image0
_chemical_formula_structural       LiO8
_chemical_formula_sum              "Li1 O8"
_cell_length_a       5.249754507535302
_cell_length_b       5.413199314268996
_cell_length_c       5.41221408469246
_cell_angle_alpha    66.06793548132961
_cell_angle_beta     55.04984107024682
_cell_angle_gamma    55.053804050826955

_space_group_name_H-M_alt    "P 1"
_space_group_IT_number       1

loop_
  _space_group_symop_operation_xyz
  'x, y, z'

loop_
  _atom_site_type_symbol
  _atom_site_label
  _atom_site_symmetry_multiplicity
  _atom_site_fract_x
  _atom_site_fract_y
  _atom_site_fract_z
  _atom_site_occupancy
  Li  Li1       1.0  0.26205570567336167  0.6749394209638524  0.9125099708137085  1.0000
  O   O1        1.0  0.7332167981259161  0.6489962432707714  0.2942153425914782  1.0000
  O   O2        1.0  0.5686507129229845  0.18160430123631954  0.6560629682209722  1.0000
  O   O3        1.0  0.24961007418426107  0.7710499393965051  0.15669074911100722  1.0000
  O   O4        1.0  0.45612909560201587  0.9825852647511  0.7068939194460029  1.0000
  O   O5        1.0  0.49726967203567085  0.5180945194969411  0.38028466396106353  1.0000
  O   O6        1.0  0.44372728395858907  0.9359920007854399  0.21044792626095443  1.0000
  O   O7        1.0  0.33648043650786974  0.6081814198193127  0.3272304913554436  1.0000
  O   O8        1.0  0.1566860638209775  0.5651730614682151  0.22564450337972985  1.0000
