data_image0
_chemical_formula_structural       LiO8
_chemical_formula_sum              "Li1 O8"
_cell_length_a       5.249754507535302
_cell_length_b       5.413199314268996
_cell_length_c       5.41221408469246
_cell_angle_alpha    66.06793548132961
_cell_angle_beta     55.04984107024682
_cell_angle_gamma    55.053804050826955

_space_group_name_H-M_alt    "P 1"
_space_group_IT_number       1

loop_
  _space_group_symop_operation_xyz
  'x, y, z'

loop_
  _atom_site_type_symbol
  _atom_site_label
  _atom_site_symmetry_multiplicity
  _atom_site_fract_x
  _atom_site_fract_y
  _atom_site_fract_z
  _atom_site_occupancy
  Li  Li1       1.0  0.19686053594069186  0.701716285876909  0.16463182565846335  1.0000
  O   O1        1.0  0.21247101022539905  0.7614647691333989  0.36804446641374566  1.0000
  O   O2        1.0  0.2033170314668986  0.5103580552325155  0.18127557955017792  1.0000
  O   O3        1.0  0.7339168429293483  0.7095021562114248  0.33313851028227326  1.0000
  O   O4        1.0  0.7321219697838117  0.9686584361068071  0.2386894842729479  1.0000
  O   O5        1.0  0.42037041095109373  0.5545050206034761  0.2788038768880323  1.0000
  O   O6        1.0  0.9635946145737186  0.33782935685888305  0.41391444940002664  1.0000
  O   O7        1.0  0.9841284231245329  0.132082683413838  0.8746635353995238  1.0000
  O   O8        1.0  0.9343666522857959  0.19050961929670507  0.5534916518390506  1.0000
