data_image0
_chemical_formula_structural       LiO8
_chemical_formula_sum              "Li1 O8"
_cell_length_a       5.249754507535302
_cell_length_b       5.413199314268996
_cell_length_c       5.41221408469246
_cell_angle_alpha    66.06793548132961
_cell_angle_beta     55.04984107024682
_cell_angle_gamma    55.053804050826955

_space_group_name_H-M_alt    "P 1"
_space_group_IT_number       1

loop_
  _space_group_symop_operation_xyz
  'x, y, z'

loop_
  _atom_site_type_symbol
  _atom_site_label
  _atom_site_symmetry_multiplicity
  _atom_site_fract_x
  _atom_site_fract_y
  _atom_site_fract_z
  _atom_site_occupancy
  Li  Li1       1.0  0.04143318774678306  0.8542687759587011  0.13042876015046545  1.0000
  O   O1        1.0  0.526010525226976  0.25966440731394336  0.7669104405651694  1.0000
  O   O2        1.0  0.9858777371003892  0.03270330660080001  0.041827673645013164  1.0000
  O   O3        1.0  0.5817946795910061  0.5740632583110283  0.3875624222667149  1.0000
  O   O4        1.0  0.2880676236228794  0.407689873856377  0.4336596705463478  1.0000
  O   O5        1.0  0.36409945371101315  0.8193926370194973  0.9670715990300605  1.0000
  O   O6        1.0  0.07990911020088376  0.556104535959328  0.16781078853176723  1.0000
  O   O7        1.0  0.8541333002288667  0.15047267911270268  0.9742090766764875  1.0000
  O   O8        1.0  0.05466359326901937  0.4645404552721075  0.3733499184789615  1.0000
