data_image0
_chemical_formula_structural       LiO8
_chemical_formula_sum              "Li1 O8"
_cell_length_a       5.249754507535302
_cell_length_b       5.413199314268996
_cell_length_c       5.41221408469246
_cell_angle_alpha    66.06793548132961
_cell_angle_beta     55.04984107024682
_cell_angle_gamma    55.053804050826955

_space_group_name_H-M_alt    "P 1"
_space_group_IT_number       1

loop_
  _space_group_symop_operation_xyz
  'x, y, z'

loop_
  _atom_site_type_symbol
  _atom_site_label
  _atom_site_symmetry_multiplicity
  _atom_site_fract_x
  _atom_site_fract_y
  _atom_site_fract_z
  _atom_site_occupancy
  Li  Li1       1.0  0.794093232811818  0.7169729067770803  0.9943136753978976  1.0000
  O   O1        1.0  0.027417987259021004  0.9539566061693989  0.2580564808746759  1.0000
  O   O2        1.0  0.3305865120531064  0.1657176843746555  0.2683453515544869  1.0000
  O   O3        1.0  0.6893073453339156  0.9951861371843762  0.38336848969322546  1.0000
  O   O4        1.0  0.5210034729002366  0.9078624498446963  0.2167691830992453  1.0000
  O   O5        1.0  0.9228155939230192  0.839601287017878  0.08533005783990788  1.0000
  O   O6        1.0  0.055938479188478496  0.55876869616581  0.3875018607804339  1.0000
  O   O7        1.0  0.26829625370233146  0.030537614208993702  0.8758570155894816  1.0000
  O   O8        1.0  0.5263314978260043  0.7896409454273519  0.9413668025906503  1.0000
