data_image0
_chemical_formula_structural       LiO8
_chemical_formula_sum              "Li1 O8"
_cell_length_a       5.249754507535302
_cell_length_b       5.413199314268996
_cell_length_c       5.41221408469246
_cell_angle_alpha    66.06793548132961
_cell_angle_beta     55.04984107024682
_cell_angle_gamma    55.053804050826955

_space_group_name_H-M_alt    "P 1"
_space_group_IT_number       1

loop_
  _space_group_symop_operation_xyz
  'x, y, z'

loop_
  _atom_site_type_symbol
  _atom_site_label
  _atom_site_symmetry_multiplicity
  _atom_site_fract_x
  _atom_site_fract_y
  _atom_site_fract_z
  _atom_site_occupancy
  Li  Li1       1.0  0.4786832620347923  0.7686627688075589  0.46132156767468757  1.0000
  O   O1        1.0  0.7694356606238344  0.32370426072807135  0.0604664187613011  1.0000
  O   O2        1.0  0.08481431326433508  0.48652482072283476  0.1453679300901456  1.0000
  O   O3        1.0  0.22535500661891206  0.3160820288583146  0.5817199793429069  1.0000
  O   O4        1.0  0.9761976390218479  0.9652781158004196  0.27445721117382504  1.0000
  O   O5        1.0  0.7662177168998454  0.40509753223697587  0.2568557767479902  1.0000
  O   O6        1.0  0.7291945508162427  0.5103489103252983  0.3832702631865885  1.0000
  O   O7        1.0  0.8133933686876489  0.6183785608331287  0.8372137131233153  1.0000
  O   O8        1.0  0.8764312379770978  0.5523068617154081  0.9155414173725209  1.0000
