data_image0
_chemical_formula_structural       LiO8
_chemical_formula_sum              "Li1 O8"
_cell_length_a       5.249754507535302
_cell_length_b       5.413199314268996
_cell_length_c       5.41221408469246
_cell_angle_alpha    66.06793548132961
_cell_angle_beta     55.04984107024682
_cell_angle_gamma    55.053804050826955

_space_group_name_H-M_alt    "P 1"
_space_group_IT_number       1

loop_
  _space_group_symop_operation_xyz
  'x, y, z'

loop_
  _atom_site_type_symbol
  _atom_site_label
  _atom_site_symmetry_multiplicity
  _atom_site_fract_x
  _atom_site_fract_y
  _atom_site_fract_z
  _atom_site_occupancy
  Li  Li1       1.0  0.8545619870822634  0.2400425671422255  0.28917914338354933  1.0000
  O   O1        1.0  0.23725444208797342  0.9162751395107627  0.5384339125512163  1.0000
  O   O2        1.0  0.6222679469496661  0.614216261446515  0.7569451668404881  1.0000
  O   O3        1.0  0.39070322504564103  0.3117126458845121  0.8495048447139553  1.0000
  O   O4        1.0  0.19308601467659514  0.5064405351158179  0.028743721457772153  1.0000
  O   O5        1.0  0.6873099439849142  0.17368570886328172  0.13120867616571275  1.0000
  O   O6        1.0  0.8592514144867145  0.19025788382603537  0.472387112589459  1.0000
  O   O7        1.0  0.11623625214550515  0.9456303482205899  0.6697034032045828  1.0000
  O   O8        1.0  0.9207279012100607  0.3345094998868525  0.8222087851490634  1.0000
