data_image0
_chemical_formula_structural       LiO8
_chemical_formula_sum              "Li1 O8"
_cell_length_a       5.249754507535302
_cell_length_b       5.413199314268996
_cell_length_c       5.41221408469246
_cell_angle_alpha    66.06793548132961
_cell_angle_beta     55.04984107024682
_cell_angle_gamma    55.053804050826955

_space_group_name_H-M_alt    "P 1"
_space_group_IT_number       1

loop_
  _space_group_symop_operation_xyz
  'x, y, z'

loop_
  _atom_site_type_symbol
  _atom_site_label
  _atom_site_symmetry_multiplicity
  _atom_site_fract_x
  _atom_site_fract_y
  _atom_site_fract_z
  _atom_site_occupancy
  Li  Li1       1.0  0.558833767442863  0.3891090722110704  0.6973303340118093  1.0000
  O   O1        1.0  0.15045288379712218  0.6444026306079138  0.2645245145094819  1.0000
  O   O2        1.0  0.4007262303475363  0.9045909871844309  0.3937043989901525  1.0000
  O   O3        1.0  0.4307205299685819  0.7773215368764852  0.09301544885786228  1.0000
  O   O4        1.0  0.21384912877289075  0.27739465179610434  0.3815355266046083  1.0000
  O   O5        1.0  0.7662141970787246  0.9499757111585581  0.007108260157480117  1.0000
  O   O6        1.0  0.1293385085485439  0.2613205096932383  0.8998024887711429  1.0000
  O   O7        1.0  0.4125942706140364  0.8432532877837224  0.907013333943496  1.0000
  O   O8        1.0  0.11766582773559664  0.3270021228876221  0.1078874046964406  1.0000
