data_image0
_chemical_formula_structural       LiO8
_chemical_formula_sum              "Li1 O8"
_cell_length_a       5.249754507535302
_cell_length_b       5.413199314268996
_cell_length_c       5.41221408469246
_cell_angle_alpha    66.06793548132961
_cell_angle_beta     55.04984107024682
_cell_angle_gamma    55.053804050826955

_space_group_name_H-M_alt    "P 1"
_space_group_IT_number       1

loop_
  _space_group_symop_operation_xyz
  'x, y, z'

loop_
  _atom_site_type_symbol
  _atom_site_label
  _atom_site_symmetry_multiplicity
  _atom_site_fract_x
  _atom_site_fract_y
  _atom_site_fract_z
  _atom_site_occupancy
  Li  Li1       1.0  0.322039235962837  0.7100895110201613  0.9955951221870486  1.0000
  O   O1        1.0  0.14344470931717002  0.1329477748231085  0.9097694848681357  1.0000
  O   O2        1.0  0.7232598705023925  0.6586563641235701  0.7930231679943276  1.0000
  O   O3        1.0  0.19724011997861624  0.05137033735245922  0.10473086175669977  1.0000
  O   O4        1.0  0.7002071006165416  0.07962714739738797  0.7250890740181548  1.0000
  O   O5        1.0  0.5431749711940697  0.9386615190026228  0.12290983449682358  1.0000
  O   O6        1.0  0.32297488978114774  0.5928394257829517  0.18154923984561844  1.0000
  O   O7        1.0  0.9175107728873151  0.2813662172463083  0.3468114414322443  1.0000
  O   O8        1.0  0.02581553801078229  0.5066459124879117  0.25448228485896607  1.0000
