data_image0
_chemical_formula_structural       LiO8
_chemical_formula_sum              "Li1 O8"
_cell_length_a       5.249754507535302
_cell_length_b       5.413199314268996
_cell_length_c       5.41221408469246
_cell_angle_alpha    66.06793548132961
_cell_angle_beta     55.04984107024682
_cell_angle_gamma    55.053804050826955

_space_group_name_H-M_alt    "P 1"
_space_group_IT_number       1

loop_
  _space_group_symop_operation_xyz
  'x, y, z'

loop_
  _atom_site_type_symbol
  _atom_site_label
  _atom_site_symmetry_multiplicity
  _atom_site_fract_x
  _atom_site_fract_y
  _atom_site_fract_z
  _atom_site_occupancy
  Li  Li1       1.0  0.21928370172049583  0.9915750842268025  0.21137441341761987  1.0000
  O   O1        1.0  0.3967569250247034  0.7420947796633754  0.017927684816861245  1.0000
  O   O2        1.0  0.18624177384779017  0.42352355500329564  0.3356927762673827  1.0000
  O   O3        1.0  0.873637903743429  0.3404922109960822  0.849980711400196  1.0000
  O   O4        1.0  0.1394910240976941  0.34945053184930686  0.29632136503004247  1.0000
  O   O5        1.0  0.6418027634297587  0.13745696671505137  0.780879133663305  1.0000
  O   O6        1.0  0.09241701554982562  0.16589333075581436  0.9454197857960414  1.0000
  O   O7        1.0  0.07485105514760448  0.13697124772298963  0.816885565558005  1.0000
  O   O8        1.0  0.6735701753462919  0.11808869831889979  0.9843003592509092  1.0000
