data_image0
_chemical_formula_structural       LiO8
_chemical_formula_sum              "Li1 O8"
_cell_length_a       5.249754507535302
_cell_length_b       5.413199314268996
_cell_length_c       5.41221408469246
_cell_angle_alpha    66.06793548132961
_cell_angle_beta     55.04984107024682
_cell_angle_gamma    55.053804050826955

_space_group_name_H-M_alt    "P 1"
_space_group_IT_number       1

loop_
  _space_group_symop_operation_xyz
  'x, y, z'

loop_
  _atom_site_type_symbol
  _atom_site_label
  _atom_site_symmetry_multiplicity
  _atom_site_fract_x
  _atom_site_fract_y
  _atom_site_fract_z
  _atom_site_occupancy
  Li  Li1       1.0  0.35546696908388853  0.08027751087503887  0.2559206762176567  1.0000
  O   O1        1.0  0.6994362244359014  0.07251847433015168  0.929270206165075  1.0000
  O   O2        1.0  0.026197840590299393  0.15349646353929236  0.7231415228515274  1.0000
  O   O3        1.0  0.6926894504530736  0.4539464750897011  0.23693528375196848  1.0000
  O   O4        1.0  0.268240102515124  0.20772083740694147  0.22079038748985136  1.0000
  O   O5        1.0  0.6377464884971289  0.5956614893699106  0.2774183660216156  1.0000
  O   O6        1.0  0.13289928714977783  0.5180239896494783  0.2574889077604783  1.0000
  O   O7        1.0  0.3818960912097964  0.7236958131640279  0.644822408214587  1.0000
  O   O8        1.0  0.6955804404821642  0.7026083146318136  0.6432731770550717  1.0000
