data_image0
_chemical_formula_structural       LiO8
_chemical_formula_sum              "Li1 O8"
_cell_length_a       5.249754507535302
_cell_length_b       5.413199314268996
_cell_length_c       5.41221408469246
_cell_angle_alpha    66.06793548132961
_cell_angle_beta     55.04984107024682
_cell_angle_gamma    55.053804050826955

_space_group_name_H-M_alt    "P 1"
_space_group_IT_number       1

loop_
  _space_group_symop_operation_xyz
  'x, y, z'

loop_
  _atom_site_type_symbol
  _atom_site_label
  _atom_site_symmetry_multiplicity
  _atom_site_fract_x
  _atom_site_fract_y
  _atom_site_fract_z
  _atom_site_occupancy
  Li  Li1       1.0  0.4144284862485179  0.2664934255829223  0.660542105366769  1.0000
  O   O1        1.0  0.2127478319394207  0.3574870979182694  0.15821561047761623  1.0000
  O   O2        1.0  0.9488901794725031  0.6856411812209782  0.27327712469167054  1.0000
  O   O3        1.0  0.7320132698730086  0.6928467684083195  0.6046398460112137  1.0000
  O   O4        1.0  0.2286504769599631  0.5978120369119466  0.08503507288357204  1.0000
  O   O5        1.0  0.5595434619735684  0.8048652184677527  0.4776601900388826  1.0000
  O   O6        1.0  0.7144666488519347  0.9846275117487906  0.29734008392870664  1.0000
  O   O7        1.0  0.4418038831719815  0.5058888704689508  0.49732571439039575  1.0000
  O   O8        1.0  0.12994817174317674  0.3243188677699038  0.8330231139083346  1.0000
