data_image0
_chemical_formula_structural       LiO8
_chemical_formula_sum              "Li1 O8"
_cell_length_a       5.249754507535302
_cell_length_b       5.413199314268996
_cell_length_c       5.41221408469246
_cell_angle_alpha    66.06793548132961
_cell_angle_beta     55.04984107024682
_cell_angle_gamma    55.053804050826955

_space_group_name_H-M_alt    "P 1"
_space_group_IT_number       1

loop_
  _space_group_symop_operation_xyz
  'x, y, z'

loop_
  _atom_site_type_symbol
  _atom_site_label
  _atom_site_symmetry_multiplicity
  _atom_site_fract_x
  _atom_site_fract_y
  _atom_site_fract_z
  _atom_site_occupancy
  Li  Li1       1.0  0.988640050641159  0.3994732404362509  0.3594492548044026  1.0000
  O   O1        1.0  0.22210865861739038  0.6560711327544144  0.07156783447788939  1.0000
  O   O2        1.0  0.36318783976854974  0.20575376454590355  0.795341239123875  1.0000
  O   O3        1.0  0.5124488017252133  0.9647170321244758  0.8773058648871981  1.0000
  O   O4        1.0  0.8127092644410645  0.2820011106022289  0.5738059339412978  1.0000
  O   O5        1.0  0.9254892649008113  0.10208891849347612  0.4381207834128453  1.0000
  O   O6        1.0  0.19589062167052695  0.10522608743600514  0.346252218451248  1.0000
  O   O7        1.0  0.5422189799486041  0.5793556285711787  0.7598467403195315  1.0000
  O   O8        1.0  0.7254809122752164  0.3756822306616918  0.7296205229458153  1.0000
