data_image0
_chemical_formula_structural       LiO8
_chemical_formula_sum              "Li1 O8"
_cell_length_a       5.249754507535302
_cell_length_b       5.413199314268996
_cell_length_c       5.41221408469246
_cell_angle_alpha    66.06793548132961
_cell_angle_beta     55.04984107024682
_cell_angle_gamma    55.053804050826955

_space_group_name_H-M_alt    "P 1"
_space_group_IT_number       1

loop_
  _space_group_symop_operation_xyz
  'x, y, z'

loop_
  _atom_site_type_symbol
  _atom_site_label
  _atom_site_symmetry_multiplicity
  _atom_site_fract_x
  _atom_site_fract_y
  _atom_site_fract_z
  _atom_site_occupancy
  Li  Li1       1.0  0.9881870767631895  0.0017490227141543357  0.7090663779914763  1.0000
  O   O1        1.0  0.03043126731425616  0.2622517470849868  0.20943110115734953  1.0000
  O   O2        1.0  0.1778750725648095  0.7829521188894155  0.05766291055919126  1.0000
  O   O3        1.0  0.9537540652908447  0.08477386772839424  0.5878838883755648  1.0000
  O   O4        1.0  0.4184595981580106  0.9003086924130201  0.5036602243199999  1.0000
  O   O5        1.0  0.5129469576087651  0.7717274866543029  0.7861006606750269  1.0000
  O   O6        1.0  0.843390485858699  0.48046326325773947  0.7035637615664099  1.0000
  O   O7        1.0  0.1901708381533993  0.6515888461884636  0.05365669622320013  1.0000
  O   O8        1.0  0.4809689908825021  0.5967864319013225  0.10721599110305036  1.0000
