data_image0
_chemical_formula_structural       LiO8
_chemical_formula_sum              "Li1 O8"
_cell_length_a       5.249754507535302
_cell_length_b       5.413199314268996
_cell_length_c       5.41221408469246
_cell_angle_alpha    66.06793548132961
_cell_angle_beta     55.04984107024682
_cell_angle_gamma    55.053804050826955

_space_group_name_H-M_alt    "P 1"
_space_group_IT_number       1

loop_
  _space_group_symop_operation_xyz
  'x, y, z'

loop_
  _atom_site_type_symbol
  _atom_site_label
  _atom_site_symmetry_multiplicity
  _atom_site_fract_x
  _atom_site_fract_y
  _atom_site_fract_z
  _atom_site_occupancy
  Li  Li1       1.0  0.47366886854676693  0.5632948307065107  0.6467276477386577  1.0000
  O   O1        1.0  0.43943704367217507  0.6538251095311534  0.916629976410654  1.0000
  O   O2        1.0  0.46719914142214236  0.20479856632352345  0.5884777746850709  1.0000
  O   O3        1.0  0.2531634569165746  0.6261434256095058  0.0010841877895515495  1.0000
  O   O4        1.0  0.7384050864707388  0.05830827074044187  0.6630080934356579  1.0000
  O   O5        1.0  0.7318020215978187  0.9854416102219972  0.0858351099095902  1.0000
  O   O6        1.0  0.944566089628939  0.7197762583588911  0.02162570434560429  1.0000
  O   O7        1.0  0.3280898859389545  0.8172809640839507  0.6517165802308895  1.0000
  O   O8        1.0  0.7080601878398376  0.2349716483324471  0.32115691635640786  1.0000
