data_image0
_chemical_formula_structural       LiO8
_chemical_formula_sum              "Li1 O8"
_cell_length_a       5.249754507535302
_cell_length_b       5.413199314268996
_cell_length_c       5.41221408469246
_cell_angle_alpha    66.06793548132961
_cell_angle_beta     55.04984107024682
_cell_angle_gamma    55.053804050826955

_space_group_name_H-M_alt    "P 1"
_space_group_IT_number       1

loop_
  _space_group_symop_operation_xyz
  'x, y, z'

loop_
  _atom_site_type_symbol
  _atom_site_label
  _atom_site_symmetry_multiplicity
  _atom_site_fract_x
  _atom_site_fract_y
  _atom_site_fract_z
  _atom_site_occupancy
  Li  Li1       1.0  0.3938305870113368  0.9601071336692257  0.9926642752080426  1.0000
  O   O1        1.0  0.43018444151582713  0.2660485703520994  0.3790735268035945  1.0000
  O   O2        1.0  0.7930298177574868  0.3135031952347731  0.07918501465815098  1.0000
  O   O3        1.0  0.3666541290443561  0.04892298786519422  0.42519383147143586  1.0000
  O   O4        1.0  0.0908539350162556  0.21144640731044717  0.26385908060026964  1.0000
  O   O5        1.0  0.43036012226413334  0.35804378640191104  0.19699786032721534  1.0000
  O   O6        1.0  0.9248156415626063  0.7060618370982557  0.37802290384760084  1.0000
  O   O7        1.0  0.2980286796155278  0.14931118381973363  0.1563828176776667  1.0000
  O   O8        1.0  0.48026756865694153  0.7326306239440257  0.7782668299836928  1.0000
