data_image0
_chemical_formula_structural       LiO8
_chemical_formula_sum              "Li1 O8"
_cell_length_a       5.249754507535302
_cell_length_b       5.413199314268996
_cell_length_c       5.41221408469246
_cell_angle_alpha    66.06793548132961
_cell_angle_beta     55.04984107024682
_cell_angle_gamma    55.053804050826955

_space_group_name_H-M_alt    "P 1"
_space_group_IT_number       1

loop_
  _space_group_symop_operation_xyz
  'x, y, z'

loop_
  _atom_site_type_symbol
  _atom_site_label
  _atom_site_symmetry_multiplicity
  _atom_site_fract_x
  _atom_site_fract_y
  _atom_site_fract_z
  _atom_site_occupancy
  Li  Li1       1.0  0.6913492773681327  0.9994653569807319  0.6291419367371383  1.0000
  O   O1        1.0  0.3527391334085834  0.12070605747541663  0.547109951672617  1.0000
  O   O2        1.0  0.6503777921696887  0.5104809901357816  0.21614841404406704  1.0000
  O   O3        1.0  0.49276758410677246  0.6429859594004732  0.5707798580437355  1.0000
  O   O4        1.0  0.4081758452582207  0.0953775805427064  0.38551802110171707  1.0000
  O   O5        1.0  0.6108447653293183  0.8189657947131224  0.26934940099397764  1.0000
  O   O6        1.0  0.4015971183171523  0.18649646019601818  0.09785939889762929  1.0000
  O   O7        1.0  0.8675320757056291  0.5000835890108561  0.16902082416959274  1.0000
  O   O8        1.0  0.4076316194959002  0.5396837343237237  0.1034426694217423  1.0000
