data_image0
_chemical_formula_structural       LiO8
_chemical_formula_sum              "Li1 O8"
_cell_length_a       5.249754507535302
_cell_length_b       5.413199314268996
_cell_length_c       5.41221408469246
_cell_angle_alpha    66.06793548132961
_cell_angle_beta     55.04984107024682
_cell_angle_gamma    55.053804050826955

_space_group_name_H-M_alt    "P 1"
_space_group_IT_number       1

loop_
  _space_group_symop_operation_xyz
  'x, y, z'

loop_
  _atom_site_type_symbol
  _atom_site_label
  _atom_site_symmetry_multiplicity
  _atom_site_fract_x
  _atom_site_fract_y
  _atom_site_fract_z
  _atom_site_occupancy
  Li  Li1       1.0  0.7726907070760944  0.5811154915172381  0.7519009760882369  1.0000
  O   O1        1.0  0.6718980745553438  0.09029188263979826  0.043406831175218485  1.0000
  O   O2        1.0  0.6828514785247606  0.5399220742506614  0.2290411710130229  1.0000
  O   O3        1.0  0.41431325630141913  0.44635799498710416  0.6879388642012678  1.0000
  O   O4        1.0  0.3713228409342264  0.1846346855865022  0.008009064164980373  1.0000
  O   O5        1.0  0.42875912360366897  0.05539285976533748  0.5449599470418178  1.0000
  O   O6        1.0  0.8758064041111089  0.21067497182141892  0.7988151614589754  1.0000
  O   O7        1.0  0.35927129365746246  0.1529217800645526  0.8806594478467744  1.0000
  O   O8        1.0  0.19152708574765143  0.5830264540929164  0.26804767795695295  1.0000
