data_image0
_chemical_formula_structural       LiO8
_chemical_formula_sum              "Li1 O8"
_cell_length_a       5.249754507535302
_cell_length_b       5.413199314268996
_cell_length_c       5.41221408469246
_cell_angle_alpha    66.06793548132961
_cell_angle_beta     55.04984107024682
_cell_angle_gamma    55.053804050826955

_space_group_name_H-M_alt    "P 1"
_space_group_IT_number       1

loop_
  _space_group_symop_operation_xyz
  'x, y, z'

loop_
  _atom_site_type_symbol
  _atom_site_label
  _atom_site_symmetry_multiplicity
  _atom_site_fract_x
  _atom_site_fract_y
  _atom_site_fract_z
  _atom_site_occupancy
  Li  Li1       1.0  0.5155711462336536  0.5159141178870819  0.11190001054022947  1.0000
  O   O1        1.0  0.5381302967692374  0.47459850511427604  0.6610762994770356  1.0000
  O   O2        1.0  0.28651031451082076  0.3208017056649286  0.8655362614964393  1.0000
  O   O3        1.0  0.43505364683716685  0.9434319709566878  0.37174159913410776  1.0000
  O   O4        1.0  0.9666323402910031  0.16362607771446847  0.2743734915994782  1.0000
  O   O5        1.0  0.1679697308370507  0.15014656228588663  0.5332853657863303  1.0000
  O   O6        1.0  0.25626758748446754  0.6731290712496545  0.8364737379405547  1.0000
  O   O7        1.0  0.9817243926361581  0.8976542998066641  0.9690827703607283  1.0000
  O   O8        1.0  0.6130904700845861  0.1734653448666954  0.26125514706494  1.0000
