data_image0
_chemical_formula_structural       LiO8
_chemical_formula_sum              "Li1 O8"
_cell_length_a       5.249754507535302
_cell_length_b       5.413199314268996
_cell_length_c       5.41221408469246
_cell_angle_alpha    66.06793548132961
_cell_angle_beta     55.04984107024682
_cell_angle_gamma    55.053804050826955

_space_group_name_H-M_alt    "P 1"
_space_group_IT_number       1

loop_
  _space_group_symop_operation_xyz
  'x, y, z'

loop_
  _atom_site_type_symbol
  _atom_site_label
  _atom_site_symmetry_multiplicity
  _atom_site_fract_x
  _atom_site_fract_y
  _atom_site_fract_z
  _atom_site_occupancy
  Li  Li1       1.0  0.3692127412443966  0.11293998244487113  0.5167139536019505  1.0000
  O   O1        1.0  0.18329822767318582  0.7700811628151261  0.7339497735141638  1.0000
  O   O2        1.0  0.3175269900701032  0.3319851846244486  0.5004561849506359  1.0000
  O   O3        1.0  0.12387161951928505  0.03827078850885357  0.9565187492931564  1.0000
  O   O4        1.0  0.5293077252413738  0.6698421314106451  0.8719787913071748  1.0000
  O   O5        1.0  0.9721367570689887  0.467238160756807  0.37928443013074187  1.0000
  O   O6        1.0  0.5625654669412805  0.78340189336806  0.9753958182318749  1.0000
  O   O7        1.0  0.875346488672136  0.07789987458058434  0.40103305483813756  1.0000
  O   O8        1.0  0.7354034928738571  0.9533715191300036  0.6841584654126369  1.0000
