data_image0
_chemical_formula_structural       LiO8
_chemical_formula_sum              "Li1 O8"
_cell_length_a       5.249754507535302
_cell_length_b       5.413199314268996
_cell_length_c       5.41221408469246
_cell_angle_alpha    66.06793548132961
_cell_angle_beta     55.04984107024682
_cell_angle_gamma    55.053804050826955

_space_group_name_H-M_alt    "P 1"
_space_group_IT_number       1

loop_
  _space_group_symop_operation_xyz
  'x, y, z'

loop_
  _atom_site_type_symbol
  _atom_site_label
  _atom_site_symmetry_multiplicity
  _atom_site_fract_x
  _atom_site_fract_y
  _atom_site_fract_z
  _atom_site_occupancy
  Li  Li1       1.0  0.9029719519628472  0.5468076639957218  0.7264355181452871  1.0000
  O   O1        1.0  0.5760584362365293  0.1950565820794843  0.5379284764072807  1.0000
  O   O2        1.0  0.3110769989015991  0.6796143772495844  0.9320119654297052  1.0000
  O   O3        1.0  0.511396691631262  0.07039276682762363  0.18620632009041316  1.0000
  O   O4        1.0  0.40997280603075126  0.3863375193165517  0.7070426814794395  1.0000
  O   O5        1.0  0.8437422895083984  0.17075590192906986  0.24934558006313257  1.0000
  O   O6        1.0  0.11729666036237418  0.9536432651751854  0.2644663260504707  1.0000
  O   O7        1.0  0.4780670079992859  0.37905165483456926  0.9303869277264596  1.0000
  O   O8        1.0  0.318068895598703  0.8823577288106428  0.6253630219924311  1.0000
