data_image0
_chemical_formula_structural       LiO8
_chemical_formula_sum              "Li1 O8"
_cell_length_a       5.249754507535302
_cell_length_b       5.413199314268996
_cell_length_c       5.41221408469246
_cell_angle_alpha    66.06793548132961
_cell_angle_beta     55.04984107024682
_cell_angle_gamma    55.053804050826955

_space_group_name_H-M_alt    "P 1"
_space_group_IT_number       1

loop_
  _space_group_symop_operation_xyz
  'x, y, z'

loop_
  _atom_site_type_symbol
  _atom_site_label
  _atom_site_symmetry_multiplicity
  _atom_site_fract_x
  _atom_site_fract_y
  _atom_site_fract_z
  _atom_site_occupancy
  Li  Li1       1.0  0.13865285052949616  0.19711225950926803  0.1306606524622893  1.0000
  O   O1        1.0  0.3267425440896403  0.18686092006727328  0.4590159461764003  1.0000
  O   O2        1.0  0.8801309372140302  0.5466706823270613  0.711323327688099  1.0000
  O   O3        1.0  0.8215164774578412  0.9463393914215352  0.1923579843190808  1.0000
  O   O4        1.0  0.16326213818236113  0.5671983589178042  0.26409476681098454  1.0000
  O   O5        1.0  0.488240088476104  0.44559755996629136  0.9852427597901467  1.0000
  O   O6        1.0  0.4200314768099176  0.6459062256623582  0.26591940059515906  1.0000
  O   O7        1.0  0.2813254239561882  0.7988241012073161  0.6970984373143718  1.0000
  O   O8        1.0  0.45169729942277925  0.5662775151003743  0.47856953808845215  1.0000
