data_image0
_chemical_formula_structural       LiO8
_chemical_formula_sum              "Li1 O8"
_cell_length_a       5.249754507535302
_cell_length_b       5.413199314268996
_cell_length_c       5.41221408469246
_cell_angle_alpha    66.06793548132961
_cell_angle_beta     55.04984107024682
_cell_angle_gamma    55.053804050826955

_space_group_name_H-M_alt    "P 1"
_space_group_IT_number       1

loop_
  _space_group_symop_operation_xyz
  'x, y, z'

loop_
  _atom_site_type_symbol
  _atom_site_label
  _atom_site_symmetry_multiplicity
  _atom_site_fract_x
  _atom_site_fract_y
  _atom_site_fract_z
  _atom_site_occupancy
  Li  Li1       1.0  0.8139964030752933  0.9427190302709576  0.8478205013846973  1.0000
  O   O1        1.0  0.6570780245685306  0.754328148890453  0.9957300232265371  1.0000
  O   O2        1.0  0.15777436005849665  0.5366777863833967  0.20508668485128112  1.0000
  O   O3        1.0  0.6899604531624561  0.8770568519836743  0.4895928514322909  1.0000
  O   O4        1.0  0.5677610949606091  0.1453248346333318  0.3077397711846164  1.0000
  O   O5        1.0  0.9488205702040275  0.8812031760134751  0.5840003315015387  1.0000
  O   O6        1.0  0.39667497742038194  0.8609880194716197  0.44358071482373873  1.0000
  O   O7        1.0  0.4204564509758235  0.3549556326520573  0.9632136290367335  1.0000
  O   O8        1.0  0.7092917120741475  0.6444535126251765  0.07894490959058142  1.0000
