data_image0
_chemical_formula_structural       LiO8
_chemical_formula_sum              "Li1 O8"
_cell_length_a       5.249754507535302
_cell_length_b       5.413199314268996
_cell_length_c       5.41221408469246
_cell_angle_alpha    66.06793548132961
_cell_angle_beta     55.04984107024682
_cell_angle_gamma    55.053804050826955

_space_group_name_H-M_alt    "P 1"
_space_group_IT_number       1

loop_
  _space_group_symop_operation_xyz
  'x, y, z'

loop_
  _atom_site_type_symbol
  _atom_site_label
  _atom_site_symmetry_multiplicity
  _atom_site_fract_x
  _atom_site_fract_y
  _atom_site_fract_z
  _atom_site_occupancy
  Li  Li1       1.0  0.15393120739097554  0.34969550701996255  0.06313412195210333  1.0000
  O   O1        1.0  0.7631451124207658  0.8203531761486111  0.35459040596500735  1.0000
  O   O2        1.0  0.4376629282083391  0.21924084010053768  0.8764346492210926  1.0000
  O   O3        1.0  0.029328393331589098  0.5232628108168491  0.2482566349087918  1.0000
  O   O4        1.0  0.3492333708814428  0.8055011225973061  0.7438159234417157  1.0000
  O   O5        1.0  0.3562196445652148  0.8768949823671193  0.5470080435015561  1.0000
  O   O6        1.0  0.8437092330175568  0.14385121917821309  0.27867271252950054  1.0000
  O   O7        1.0  0.007398828931776791  0.17770504529233477  0.2634080981767326  1.0000
  O   O8        1.0  0.5475284634783204  0.971597711887954  0.7624231002535184  1.0000
