data_image0
_chemical_formula_structural       LiO8
_chemical_formula_sum              "Li1 O8"
_cell_length_a       5.249754507535302
_cell_length_b       5.413199314268996
_cell_length_c       5.41221408469246
_cell_angle_alpha    66.06793548132961
_cell_angle_beta     55.04984107024682
_cell_angle_gamma    55.053804050826955

_space_group_name_H-M_alt    "P 1"
_space_group_IT_number       1

loop_
  _space_group_symop_operation_xyz
  'x, y, z'

loop_
  _atom_site_type_symbol
  _atom_site_label
  _atom_site_symmetry_multiplicity
  _atom_site_fract_x
  _atom_site_fract_y
  _atom_site_fract_z
  _atom_site_occupancy
  Li  Li1       1.0  0.3434487254104681  0.3468906851027498  0.49105432004171234  1.0000
  O   O1        1.0  0.5233412342781563  0.8266791059522802  0.04804403056061801  1.0000
  O   O2        1.0  0.9394172655591198  0.4692615570303218  0.7077815386271737  1.0000
  O   O3        1.0  0.7673674539541224  0.24650892064787144  0.6050592407608129  1.0000
  O   O4        1.0  0.9902013483172993  0.7678920049152169  0.2928774111081083  1.0000
  O   O5        1.0  0.7900088717536846  0.22516157837859407  0.14532585015405175  1.0000
  O   O6        1.0  0.310791951080964  0.7710806803420454  0.6221490655993946  1.0000
  O   O7        1.0  0.15095384594779215  0.06695973416248435  0.35281526459332824  1.0000
  O   O8        1.0  0.0904777466612785  0.2947989572983545  0.16000731900259524  1.0000
