data_image0
_chemical_formula_structural       LiO8
_chemical_formula_sum              "Li1 O8"
_cell_length_a       5.249754507535302
_cell_length_b       5.413199314268996
_cell_length_c       5.41221408469246
_cell_angle_alpha    66.06793548132961
_cell_angle_beta     55.04984107024682
_cell_angle_gamma    55.053804050826955

_space_group_name_H-M_alt    "P 1"
_space_group_IT_number       1

loop_
  _space_group_symop_operation_xyz
  'x, y, z'

loop_
  _atom_site_type_symbol
  _atom_site_label
  _atom_site_symmetry_multiplicity
  _atom_site_fract_x
  _atom_site_fract_y
  _atom_site_fract_z
  _atom_site_occupancy
  Li  Li1       1.0  0.36337798574379576  0.9310037951027823  0.43485962357446795  1.0000
  O   O1        1.0  0.1333080826785107  0.49861849170153505  0.2155739016251914  1.0000
  O   O2        1.0  0.01262290178649772  0.5417653446891819  0.41191006078121006  1.0000
  O   O3        1.0  0.896102814503358  0.21984275670386053  0.6280046190047308  1.0000
  O   O4        1.0  0.35489224758487126  0.12320215393787137  0.7705061253363397  1.0000
  O   O5        1.0  0.7378066055471351  0.9906355422113275  0.9630871067855225  1.0000
  O   O6        1.0  0.3154363342150508  0.7558093643038113  0.18905381948157896  1.0000
  O   O7        1.0  0.9457944149535582  0.6204673715439277  0.358837586540556  1.0000
  O   O8        1.0  0.7222926236023923  0.2547800757389851  0.8583585735059138  1.0000
