data_image0
_chemical_formula_structural       LiO8
_chemical_formula_sum              "Li1 O8"
_cell_length_a       5.249754507535302
_cell_length_b       5.413199314268996
_cell_length_c       5.41221408469246
_cell_angle_alpha    66.06793548132961
_cell_angle_beta     55.04984107024682
_cell_angle_gamma    55.053804050826955

_space_group_name_H-M_alt    "P 1"
_space_group_IT_number       1

loop_
  _space_group_symop_operation_xyz
  'x, y, z'

loop_
  _atom_site_type_symbol
  _atom_site_label
  _atom_site_symmetry_multiplicity
  _atom_site_fract_x
  _atom_site_fract_y
  _atom_site_fract_z
  _atom_site_occupancy
  Li  Li1       1.0  0.45914072011683515  0.5828808071387179  0.8819788977772873  1.0000
  O   O1        1.0  0.004999532892511205  0.9003082182941995  0.7153911739484258  1.0000
  O   O2        1.0  0.2314537599885398  0.8938003384604407  0.7537825095260544  1.0000
  O   O3        1.0  0.31879663037021544  0.25476201099765206  0.29557580611282397  1.0000
  O   O4        1.0  0.26850434382464883  0.5353031518614539  0.980182359274627  1.0000
  O   O5        1.0  0.6424425456896135  0.09799346010330012  0.07460475064696226  1.0000
  O   O6        1.0  0.7011283079873358  0.3492204543596187  0.0997282942867912  1.0000
  O   O7        1.0  0.9061457694698234  0.8091933479005675  0.8811416764617519  1.0000
  O   O8        1.0  0.6570943377442671  0.3464571329883524  0.6521566098247664  1.0000
