data_image0
_chemical_formula_structural       LiO8
_chemical_formula_sum              "Li1 O8"
_cell_length_a       5.249754507535302
_cell_length_b       5.413199314268996
_cell_length_c       5.41221408469246
_cell_angle_alpha    66.06793548132961
_cell_angle_beta     55.04984107024682
_cell_angle_gamma    55.053804050826955

_space_group_name_H-M_alt    "P 1"
_space_group_IT_number       1

loop_
  _space_group_symop_operation_xyz
  'x, y, z'

loop_
  _atom_site_type_symbol
  _atom_site_label
  _atom_site_symmetry_multiplicity
  _atom_site_fract_x
  _atom_site_fract_y
  _atom_site_fract_z
  _atom_site_occupancy
  Li  Li1       1.0  0.31598699278085984  0.08223170639673683  0.61348072068932  1.0000
  O   O1        1.0  0.022245206641759552  0.19357558501691763  0.12337207010359696  1.0000
  O   O2        1.0  0.5746195192945933  0.1762891946879268  0.5368289672633999  1.0000
  O   O3        1.0  0.3090859073355112  0.10516444826685145  0.039397523466158546  1.0000
  O   O4        1.0  0.1706366326067723  0.07161575519830521  0.5976569014338073  1.0000
  O   O5        1.0  0.007624774362604114  0.19352381918849204  0.7883722428403104  1.0000
  O   O6        1.0  0.1294277626351601  0.5111940801524533  0.78688028296233  1.0000
  O   O7        1.0  0.8982806031885406  0.2070893857298266  0.5212951643857675  1.0000
  O   O8        1.0  0.36462373633242606  0.5305538620622734  0.45492170555127975  1.0000
