data_image0
_chemical_formula_structural       LiO8
_chemical_formula_sum              "Li1 O8"
_cell_length_a       5.249754507535302
_cell_length_b       5.413199314268996
_cell_length_c       5.41221408469246
_cell_angle_alpha    66.06793548132961
_cell_angle_beta     55.04984107024682
_cell_angle_gamma    55.053804050826955

_space_group_name_H-M_alt    "P 1"
_space_group_IT_number       1

loop_
  _space_group_symop_operation_xyz
  'x, y, z'

loop_
  _atom_site_type_symbol
  _atom_site_label
  _atom_site_symmetry_multiplicity
  _atom_site_fract_x
  _atom_site_fract_y
  _atom_site_fract_z
  _atom_site_occupancy
  Li  Li1       1.0  0.490650096824794  0.12136375147441214  0.9916636295103984  1.0000
  O   O1        1.0  0.582534494428856  0.18649405716669776  0.3305453746301934  1.0000
  O   O2        1.0  0.3881288919733601  0.7214654206414401  0.7254700281780941  1.0000
  O   O3        1.0  0.29264271353284244  0.10404779365774885  0.3450572666846412  1.0000
  O   O4        1.0  0.2681295298798929  0.9118770830293634  0.13250041728493045  1.0000
  O   O5        1.0  0.6739515989597891  0.987437667734163  0.4418320547588763  1.0000
  O   O6        1.0  0.12288717187220133  0.7146758171372198  0.738561011642755  1.0000
  O   O7        1.0  0.713847628540563  0.17808622341065572  0.40087513912780537  1.0000
  O   O8        1.0  0.9833883953781339  0.5775428597195242  0.9862459945812425  1.0000
