data_image0
_chemical_formula_structural       LiO8
_chemical_formula_sum              "Li1 O8"
_cell_length_a       5.249754507535302
_cell_length_b       5.413199314268996
_cell_length_c       5.41221408469246
_cell_angle_alpha    66.06793548132961
_cell_angle_beta     55.04984107024682
_cell_angle_gamma    55.053804050826955

_space_group_name_H-M_alt    "P 1"
_space_group_IT_number       1

loop_
  _space_group_symop_operation_xyz
  'x, y, z'

loop_
  _atom_site_type_symbol
  _atom_site_label
  _atom_site_symmetry_multiplicity
  _atom_site_fract_x
  _atom_site_fract_y
  _atom_site_fract_z
  _atom_site_occupancy
  Li  Li1       1.0  0.6703681063885654  0.44069188708644447  0.10098600340405994  1.0000
  O   O1        1.0  0.2026778183549851  0.7278113148585046  0.6059657671889624  1.0000
  O   O2        1.0  0.3213419312669945  0.6112211979977076  0.9492637166660742  1.0000
  O   O3        1.0  0.5481717723738058  0.8067591120051301  0.5198957837434577  1.0000
  O   O4        1.0  0.3556249731128247  0.9472745192923515  0.39527093555568626  1.0000
  O   O5        1.0  0.35136284831028775  0.3485008652489725  0.3323233495390525  1.0000
  O   O6        1.0  0.46960202936467965  0.5375587385717502  0.8237388028488368  1.0000
  O   O7        1.0  0.43541853288363974  0.7012594002845702  0.8308435694684988  1.0000
  O   O8        1.0  0.12211494327621608  0.5162944874561077  0.6052947204437942  1.0000
