data_image0
_chemical_formula_structural       LiO8
_chemical_formula_sum              "Li1 O8"
_cell_length_a       5.249754507535302
_cell_length_b       5.413199314268996
_cell_length_c       5.41221408469246
_cell_angle_alpha    66.06793548132961
_cell_angle_beta     55.04984107024682
_cell_angle_gamma    55.053804050826955

_space_group_name_H-M_alt    "P 1"
_space_group_IT_number       1

loop_
  _space_group_symop_operation_xyz
  'x, y, z'

loop_
  _atom_site_type_symbol
  _atom_site_label
  _atom_site_symmetry_multiplicity
  _atom_site_fract_x
  _atom_site_fract_y
  _atom_site_fract_z
  _atom_site_occupancy
  Li  Li1       1.0  0.5120467571577407  0.35399574947436463  0.8306345209173269  1.0000
  O   O1        1.0  0.8245758355470301  0.2708577087266506  0.5196648693558146  1.0000
  O   O2        1.0  0.5783125014511157  0.4056318245666084  0.6060664318822226  1.0000
  O   O3        1.0  0.30737301192275623  0.8764640625645015  0.09615373771182334  1.0000
  O   O4        1.0  0.9507971658308381  0.37841986640252046  0.024627351759109573  1.0000
  O   O5        1.0  0.2794133616803762  0.8026358011874368  0.37702143978654945  1.0000
  O   O6        1.0  0.32851422400521435  0.6853072826310402  0.674181632358053  1.0000
  O   O7        1.0  0.16493865920824646  0.9077627865974982  0.08796718588838814  1.0000
  O   O8        1.0  0.59707343285843  0.5158335876007483  0.8700836745274998  1.0000
