data_image0
_chemical_formula_structural       LiO8
_chemical_formula_sum              "Li1 O8"
_cell_length_a       5.249754507535302
_cell_length_b       5.413199314268996
_cell_length_c       5.41221408469246
_cell_angle_alpha    66.06793548132961
_cell_angle_beta     55.04984107024682
_cell_angle_gamma    55.053804050826955

_space_group_name_H-M_alt    "P 1"
_space_group_IT_number       1

loop_
  _space_group_symop_operation_xyz
  'x, y, z'

loop_
  _atom_site_type_symbol
  _atom_site_label
  _atom_site_symmetry_multiplicity
  _atom_site_fract_x
  _atom_site_fract_y
  _atom_site_fract_z
  _atom_site_occupancy
  Li  Li1       1.0  0.14599797992102737  0.15646268748669456  0.595380406237723  1.0000
  O   O1        1.0  0.3743428307475754  0.3110542671252752  0.6130145322720324  1.0000
  O   O2        1.0  0.8965892108491786  0.5730318249580506  0.9947268998799998  1.0000
  O   O3        1.0  0.4257347474938413  0.5257950433286993  0.12066386492068881  1.0000
  O   O4        1.0  0.5730631217075377  0.08116139932224797  0.669717635453245  1.0000
  O   O5        1.0  0.732007650248752  0.83373488075258  0.9623215165025414  1.0000
  O   O6        1.0  0.6801911403135268  0.0908614263208598  0.5612979706062422  1.0000
  O   O7        1.0  0.9528879233070029  0.35725844654344385  0.7762566335199637  1.0000
  O   O8        1.0  0.8503992029316474  0.45774660620098295  0.2052588303074856  1.0000
