data_image0
_chemical_formula_structural       LiO8
_chemical_formula_sum              "Li1 O8"
_cell_length_a       5.249754507535302
_cell_length_b       5.413199314268996
_cell_length_c       5.41221408469246
_cell_angle_alpha    66.06793548132961
_cell_angle_beta     55.04984107024682
_cell_angle_gamma    55.053804050826955

_space_group_name_H-M_alt    "P 1"
_space_group_IT_number       1

loop_
  _space_group_symop_operation_xyz
  'x, y, z'

loop_
  _atom_site_type_symbol
  _atom_site_label
  _atom_site_symmetry_multiplicity
  _atom_site_fract_x
  _atom_site_fract_y
  _atom_site_fract_z
  _atom_site_occupancy
  Li  Li1       1.0  0.08971458894960449  0.7205169844585022  0.29599032074544596  1.0000
  O   O1        1.0  0.6003985706642823  0.24813630278412546  0.9168774242380753  1.0000
  O   O2        1.0  0.5676055595548481  0.9982928232178807  0.6816975693011074  1.0000
  O   O3        1.0  0.5810857589051892  0.7555105894627481  0.46408969959264823  1.0000
  O   O4        1.0  0.37224949202518687  0.3320499629237972  0.5694391867379878  1.0000
  O   O5        1.0  0.7301486674260076  0.9837839560046646  0.5564802139486744  1.0000
  O   O6        1.0  0.38559126423037987  0.9986454836863956  0.8440874773396452  1.0000
  O   O7        1.0  0.9444728717807465  0.29954164459932187  0.8131468862968632  1.0000
  O   O8        1.0  0.6071825576840597  0.5501036107642747  0.11743059997234062  1.0000
