data_image0
_chemical_formula_structural       LiO8
_chemical_formula_sum              "Li1 O8"
_cell_length_a       5.249754507535302
_cell_length_b       5.413199314268996
_cell_length_c       5.41221408469246
_cell_angle_alpha    66.06793548132961
_cell_angle_beta     55.04984107024682
_cell_angle_gamma    55.053804050826955

_space_group_name_H-M_alt    "P 1"
_space_group_IT_number       1

loop_
  _space_group_symop_operation_xyz
  'x, y, z'

loop_
  _atom_site_type_symbol
  _atom_site_label
  _atom_site_symmetry_multiplicity
  _atom_site_fract_x
  _atom_site_fract_y
  _atom_site_fract_z
  _atom_site_occupancy
  Li  Li1       1.0  0.6818757744137187  0.5663300345664695  0.8364665706188106  1.0000
  O   O1        1.0  0.8245704507248934  0.9325536273372403  0.4680322828609018  1.0000
  O   O2        1.0  0.9234638913018642  0.36495798106704314  0.9320088733095773  1.0000
  O   O3        1.0  0.741836002271377  0.44171844645831015  0.6017476422653836  1.0000
  O   O4        1.0  0.5172700605962142  0.6206810257674178  0.06624560004922131  1.0000
  O   O5        1.0  0.13240817982301678  0.16031624869830452  0.04605422841200113  1.0000
  O   O6        1.0  0.7397463050910671  0.04373157126129801  0.885384207786327  1.0000
  O   O7        1.0  0.5279387956179136  0.2864852213581912  0.5067881815333237  1.0000
  O   O8        1.0  0.7424791522836536  0.304481784565656  0.21424796789468736  1.0000
