data_image0
_chemical_formula_structural       LiO8
_chemical_formula_sum              "Li1 O8"
_cell_length_a       5.249754507535302
_cell_length_b       5.413199314268996
_cell_length_c       5.41221408469246
_cell_angle_alpha    66.06793548132961
_cell_angle_beta     55.04984107024682
_cell_angle_gamma    55.053804050826955

_space_group_name_H-M_alt    "P 1"
_space_group_IT_number       1

loop_
  _space_group_symop_operation_xyz
  'x, y, z'

loop_
  _atom_site_type_symbol
  _atom_site_label
  _atom_site_symmetry_multiplicity
  _atom_site_fract_x
  _atom_site_fract_y
  _atom_site_fract_z
  _atom_site_occupancy
  Li  Li1       1.0  0.4020614618711136  0.5943544104612783  0.4852887205335179  1.0000
  O   O1        1.0  0.7929864817374721  0.47679834748536365  0.9294747646811494  1.0000
  O   O2        1.0  0.7703846952396862  0.586470320331383  0.5288550966402639  1.0000
  O   O3        1.0  0.45611456458132693  0.8553179979823966  0.410606882253461  1.0000
  O   O4        1.0  0.7321547062991911  0.7210402465676964  0.13290183981590076  1.0000
  O   O5        1.0  0.34099400434681115  0.1453679483044823  0.26942477033269085  1.0000
  O   O6        1.0  0.28811461712073605  0.4106024414379732  0.6263456434143109  1.0000
  O   O7        1.0  0.8557215529649902  0.49292417731075555  0.8364495544578858  1.0000
  O   O8        1.0  0.4293048872099412  0.5585065605429271  0.7482823872386012  1.0000
