data_image0
_chemical_formula_structural       LiO8
_chemical_formula_sum              "Li1 O8"
_cell_length_a       5.249754507535302
_cell_length_b       5.413199314268996
_cell_length_c       5.41221408469246
_cell_angle_alpha    66.06793548132961
_cell_angle_beta     55.04984107024682
_cell_angle_gamma    55.053804050826955

_space_group_name_H-M_alt    "P 1"
_space_group_IT_number       1

loop_
  _space_group_symop_operation_xyz
  'x, y, z'

loop_
  _atom_site_type_symbol
  _atom_site_label
  _atom_site_symmetry_multiplicity
  _atom_site_fract_x
  _atom_site_fract_y
  _atom_site_fract_z
  _atom_site_occupancy
  Li  Li1       1.0  0.25218345559492406  0.6219520586578593  0.6433683590922463  1.0000
  O   O1        1.0  0.6887936589581565  0.2693373017299745  0.2768116210597995  1.0000
  O   O2        1.0  0.03812842383378978  0.6340835445224542  0.5597988526401672  1.0000
  O   O3        1.0  0.7782659500471425  0.12859867053898455  0.05510889065544866  1.0000
  O   O4        1.0  0.31397797627267465  0.677534535469551  0.09880424258508924  1.0000
  O   O5        1.0  0.8385626022150312  0.6785238696470746  0.4216612005460405  1.0000
  O   O6        1.0  0.30236214477993073  0.36330047556164935  0.791448935998591  1.0000
  O   O7        1.0  0.47205091382915754  0.16220689158000567  0.6879711941869573  1.0000
  O   O8        1.0  0.06978995510207131  0.007388917916543836  0.3827542604512111  1.0000
