data_image0
_chemical_formula_structural       LiO8
_chemical_formula_sum              "Li1 O8"
_cell_length_a       5.249754507535302
_cell_length_b       5.413199314268996
_cell_length_c       5.41221408469246
_cell_angle_alpha    66.06793548132961
_cell_angle_beta     55.04984107024682
_cell_angle_gamma    55.053804050826955

_space_group_name_H-M_alt    "P 1"
_space_group_IT_number       1

loop_
  _space_group_symop_operation_xyz
  'x, y, z'

loop_
  _atom_site_type_symbol
  _atom_site_label
  _atom_site_symmetry_multiplicity
  _atom_site_fract_x
  _atom_site_fract_y
  _atom_site_fract_z
  _atom_site_occupancy
  Li  Li1       1.0  0.06486182422145248  0.4324663559461328  0.6933893843480092  1.0000
  O   O1        1.0  0.17406570206193095  0.4667457965195614  0.8964448060423393  1.0000
  O   O2        1.0  0.4304262273009236  0.9011600720034352  0.12533304880241047  1.0000
  O   O3        1.0  0.17522604759502514  0.5421428738132121  0.7254427246278254  1.0000
  O   O4        1.0  0.4174051825680607  0.7234765489740065  0.8323149203350511  1.0000
  O   O5        1.0  0.07245931595547006  0.2012180782555184  0.9977786518192033  1.0000
  O   O6        1.0  0.7137731800432903  0.7831423627712866  0.5622578748876776  1.0000
  O   O7        1.0  0.07549229613920883  0.5408647129837449  0.6731009552815017  1.0000
  O   O8        1.0  0.5504517706377428  0.7474582831313938  0.933563374737842  1.0000
