data_image0
_chemical_formula_structural       LiO8
_chemical_formula_sum              "Li1 O8"
_cell_length_a       5.249754507535302
_cell_length_b       5.413199314268996
_cell_length_c       5.41221408469246
_cell_angle_alpha    66.06793548132961
_cell_angle_beta     55.04984107024682
_cell_angle_gamma    55.053804050826955

_space_group_name_H-M_alt    "P 1"
_space_group_IT_number       1

loop_
  _space_group_symop_operation_xyz
  'x, y, z'

loop_
  _atom_site_type_symbol
  _atom_site_label
  _atom_site_symmetry_multiplicity
  _atom_site_fract_x
  _atom_site_fract_y
  _atom_site_fract_z
  _atom_site_occupancy
  Li  Li1       1.0  0.07665700180120893  0.4645490946373805  0.10169880972137335  1.0000
  O   O1        1.0  0.9944823121798123  0.3428781395351166  0.9928580076380547  1.0000
  O   O2        1.0  0.1926542848947621  0.37959105677879945  0.07375326132142757  1.0000
  O   O3        1.0  0.7363127270112102  0.12584651042122807  0.1680604926226188  1.0000
  O   O4        1.0  0.5405646844376619  0.816272323221547  0.5415802882156342  1.0000
  O   O5        1.0  0.8449449524055588  0.35646944012283655  0.19518992682026592  1.0000
  O   O6        1.0  0.5673010592307044  0.59902514552806  0.8855716196797214  1.0000
  O   O7        1.0  0.25057519583538124  0.9778575342456151  0.7871018279604769  1.0000
  O   O8        1.0  0.1099664259836608  0.6678479120588463  0.30152475832261594  1.0000
