data_image0
_chemical_formula_structural       LiO8
_chemical_formula_sum              "Li1 O8"
_cell_length_a       5.249754507535302
_cell_length_b       5.413199314268996
_cell_length_c       5.41221408469246
_cell_angle_alpha    66.06793548132961
_cell_angle_beta     55.04984107024682
_cell_angle_gamma    55.053804050826955

_space_group_name_H-M_alt    "P 1"
_space_group_IT_number       1

loop_
  _space_group_symop_operation_xyz
  'x, y, z'

loop_
  _atom_site_type_symbol
  _atom_site_label
  _atom_site_symmetry_multiplicity
  _atom_site_fract_x
  _atom_site_fract_y
  _atom_site_fract_z
  _atom_site_occupancy
  Li  Li1       1.0  0.35614751743656825  0.3748847531952393  0.8468273640096058  1.0000
  O   O1        1.0  0.4936953059140805  0.24439224071509358  0.9863643474762398  1.0000
  O   O2        1.0  0.40467279249169685  0.7709366173249199  0.4259081954664765  1.0000
  O   O3        1.0  0.7172340555236474  0.7384291471038722  0.975739008518552  1.0000
  O   O4        1.0  0.17465329190161327  0.34324810959197194  0.4458220108048039  1.0000
  O   O5        1.0  0.45403988282843954  0.8581232405894319  0.4730889817423787  1.0000
  O   O6        1.0  0.31239451791709527  0.6628258934974127  0.969143326679891  1.0000
  O   O7        1.0  0.6633658860250122  0.5812213679205405  0.6080845349761042  1.0000
  O   O8        1.0  0.8744398199913146  0.8844599529462984  0.18082316932991294  1.0000
