data_image0
_chemical_formula_structural       LiO8
_chemical_formula_sum              "Li1 O8"
_cell_length_a       5.249754507535302
_cell_length_b       5.413199314268996
_cell_length_c       5.41221408469246
_cell_angle_alpha    66.06793548132961
_cell_angle_beta     55.04984107024682
_cell_angle_gamma    55.053804050826955

_space_group_name_H-M_alt    "P 1"
_space_group_IT_number       1

loop_
  _space_group_symop_operation_xyz
  'x, y, z'

loop_
  _atom_site_type_symbol
  _atom_site_label
  _atom_site_symmetry_multiplicity
  _atom_site_fract_x
  _atom_site_fract_y
  _atom_site_fract_z
  _atom_site_occupancy
  Li  Li1       1.0  0.7057821766288654  0.5964141954419588  0.4019371977471593  1.0000
  O   O1        1.0  0.5210365553874077  0.9385418929515108  0.5556783064561301  1.0000
  O   O2        1.0  0.5821372506389952  0.4092357448606929  0.23873371707364655  1.0000
  O   O3        1.0  0.016940201630475826  0.08998892340193265  0.1995123302057742  1.0000
  O   O4        1.0  0.7005591223153758  0.19326972139289644  0.7240797969952837  1.0000
  O   O5        1.0  0.7112169961174288  0.8348761880517763  0.34688374944848555  1.0000
  O   O6        1.0  0.2377891097210174  0.4057505982013292  0.4460616957377628  1.0000
  O   O7        1.0  0.047732195540731936  0.02016033475701562  0.37352919819218755  1.0000
  O   O8        1.0  0.30627816011558195  0.07532287637501156  0.5616849484810409  1.0000
