data_image0
_chemical_formula_structural       LiO8
_chemical_formula_sum              "Li1 O8"
_cell_length_a       5.249754507535302
_cell_length_b       5.413199314268996
_cell_length_c       5.41221408469246
_cell_angle_alpha    66.06793548132961
_cell_angle_beta     55.04984107024682
_cell_angle_gamma    55.053804050826955

_space_group_name_H-M_alt    "P 1"
_space_group_IT_number       1

loop_
  _space_group_symop_operation_xyz
  'x, y, z'

loop_
  _atom_site_type_symbol
  _atom_site_label
  _atom_site_symmetry_multiplicity
  _atom_site_fract_x
  _atom_site_fract_y
  _atom_site_fract_z
  _atom_site_occupancy
  Li  Li1       1.0  0.8312383368138967  0.4936752295373381  0.29790830552548897  1.0000
  O   O1        1.0  0.440164266723869  0.9634878741386999  0.6398384355460953  1.0000
  O   O2        1.0  0.5553818658630849  0.5191580338542767  0.4109240682015276  1.0000
  O   O3        1.0  0.9664984070849698  0.13672087802597588  0.643821280519532  1.0000
  O   O4        1.0  0.387826531104011  0.06396887437753307  0.5069729864629977  1.0000
  O   O5        1.0  0.8067672973389506  0.358907536780535  0.9814054010752571  1.0000
  O   O6        1.0  0.6357689187258457  0.4986751519368866  0.7555086917066802  1.0000
  O   O7        1.0  0.7635722355112868  0.5108908317374468  0.6710066624209432  1.0000
  O   O8        1.0  0.000676160402131476  0.6267620442271014  0.153438197030497  1.0000
