data_image0
_chemical_formula_structural       LiO8
_chemical_formula_sum              "Li1 O8"
_cell_length_a       5.249754507535302
_cell_length_b       5.413199314268996
_cell_length_c       5.41221408469246
_cell_angle_alpha    66.06793548132961
_cell_angle_beta     55.04984107024682
_cell_angle_gamma    55.053804050826955

_space_group_name_H-M_alt    "P 1"
_space_group_IT_number       1

loop_
  _space_group_symop_operation_xyz
  'x, y, z'

loop_
  _atom_site_type_symbol
  _atom_site_label
  _atom_site_symmetry_multiplicity
  _atom_site_fract_x
  _atom_site_fract_y
  _atom_site_fract_z
  _atom_site_occupancy
  Li  Li1       1.0  0.12620863763391554  0.43169092858322955  0.27394377204453946  1.0000
  O   O1        1.0  0.749744062086009  0.6411413319945574  0.5088148014689367  1.0000
  O   O2        1.0  0.8447333160580657  0.8233554382164199  0.5727880484069097  1.0000
  O   O3        1.0  0.28840752114180646  0.19975164257023437  0.5629330284251459  1.0000
  O   O4        1.0  0.6805055530394029  0.2780355726169681  0.06544111895412286  1.0000
  O   O5        1.0  0.30897717361588306  0.23195295902567636  0.9366558821320101  1.0000
  O   O6        1.0  0.3488375289858787  0.125060453280474  0.3338842297517175  1.0000
  O   O7        1.0  0.5876626558236211  0.9863470939453265  0.13147503685748063  1.0000
  O   O8        1.0  0.0012933628123690255  0.8751776640903053  0.66102850251883  1.0000
