data_image0
_chemical_formula_structural       LiO8
_chemical_formula_sum              "Li1 O8"
_cell_length_a       5.249754507535302
_cell_length_b       5.413199314268996
_cell_length_c       5.41221408469246
_cell_angle_alpha    66.06793548132961
_cell_angle_beta     55.04984107024682
_cell_angle_gamma    55.053804050826955

_space_group_name_H-M_alt    "P 1"
_space_group_IT_number       1

loop_
  _space_group_symop_operation_xyz
  'x, y, z'

loop_
  _atom_site_type_symbol
  _atom_site_label
  _atom_site_symmetry_multiplicity
  _atom_site_fract_x
  _atom_site_fract_y
  _atom_site_fract_z
  _atom_site_occupancy
  Li  Li1       1.0  0.4150550042435839  0.5564970355794507  0.8886997216123547  1.0000
  O   O1        1.0  0.06443067439592731  0.3459567067144791  0.02272222952815639  1.0000
  O   O2        1.0  0.6523299862257304  0.9147918709051552  0.5954429751690569  1.0000
  O   O3        1.0  0.8527198724874765  0.20233129232887137  0.3502223451620523  1.0000
  O   O4        1.0  0.39976652004376234  0.9236654772884947  0.4564895546559091  1.0000
  O   O5        1.0  0.425026737982968  0.8593359186589211  0.6117958229552691  1.0000
  O   O6        1.0  0.21720101185818774  0.6015768205813465  0.5231890807317736  1.0000
  O   O7        1.0  0.5919052601038786  0.7810302295485236  0.8377230744783191  1.0000
  O   O8        1.0  0.9037750368234843  0.517915685750781  0.40653217039390555  1.0000
