data_image0
_chemical_formula_structural       LiO8
_chemical_formula_sum              "Li1 O8"
_cell_length_a       5.249754507535302
_cell_length_b       5.413199314268996
_cell_length_c       5.41221408469246
_cell_angle_alpha    66.06793548132961
_cell_angle_beta     55.04984107024682
_cell_angle_gamma    55.053804050826955

_space_group_name_H-M_alt    "P 1"
_space_group_IT_number       1

loop_
  _space_group_symop_operation_xyz
  'x, y, z'

loop_
  _atom_site_type_symbol
  _atom_site_label
  _atom_site_symmetry_multiplicity
  _atom_site_fract_x
  _atom_site_fract_y
  _atom_site_fract_z
  _atom_site_occupancy
  Li  Li1       1.0  0.3109021561008021  0.020245109573441056  0.3529213677016294  1.0000
  O   O1        1.0  0.44089459565214995  0.5347037486175452  0.5240890860013288  1.0000
  O   O2        1.0  0.6208951751166656  0.20170596795636708  0.5179221381050212  1.0000
  O   O3        1.0  0.1723531144380459  0.09623279334088863  0.055971631806770006  1.0000
  O   O4        1.0  0.49474129125567146  0.32256261438153544  0.43169273928828744  1.0000
  O   O5        1.0  0.19510141271236847  0.12339142721146601  0.04724223690990215  1.0000
  O   O6        1.0  0.2823069139147254  0.7327125747453529  0.6709989106930401  1.0000
  O   O7        1.0  0.664989948292213  0.9180236468810428  0.08506102275814342  1.0000
  O   O8        1.0  0.4621255309506074  0.4048771226349661  0.9812976100463171  1.0000
