data_image0
_chemical_formula_structural       LiO8
_chemical_formula_sum              "Li1 O8"
_cell_length_a       5.249754507535302
_cell_length_b       5.413199314268996
_cell_length_c       5.41221408469246
_cell_angle_alpha    66.06793548132961
_cell_angle_beta     55.04984107024682
_cell_angle_gamma    55.053804050826955

_space_group_name_H-M_alt    "P 1"
_space_group_IT_number       1

loop_
  _space_group_symop_operation_xyz
  'x, y, z'

loop_
  _atom_site_type_symbol
  _atom_site_label
  _atom_site_symmetry_multiplicity
  _atom_site_fract_x
  _atom_site_fract_y
  _atom_site_fract_z
  _atom_site_occupancy
  Li  Li1       1.0  0.845700041966218  0.5392893203002451  0.2902849483273968  1.0000
  O   O1        1.0  0.5922038761762285  0.058908583164379635  0.9281815517744576  1.0000
  O   O2        1.0  0.6523121886690149  0.47229765813155566  0.8410639318483462  1.0000
  O   O3        1.0  0.7128448611383646  0.7699647461650301  0.5796836182294554  1.0000
  O   O4        1.0  0.8324445571585635  0.9463315856754537  0.49336611416314113  1.0000
  O   O5        1.0  0.9118492500490065  0.8133948248482632  0.8222475825641347  1.0000
  O   O6        1.0  0.6330935493330987  0.2991498026726753  0.5748446780289971  1.0000
  O   O7        1.0  0.19883116047955696  0.7167017001166371  0.21482867404597528  1.0000
  O   O8        1.0  0.9530159241542524  0.5525493898791591  0.01645163259192728  1.0000
