data_image0
_chemical_formula_structural       LiO8
_chemical_formula_sum              "Li1 O8"
_cell_length_a       5.249754507535302
_cell_length_b       5.413199314268996
_cell_length_c       5.41221408469246
_cell_angle_alpha    66.06793548132961
_cell_angle_beta     55.04984107024682
_cell_angle_gamma    55.053804050826955

_space_group_name_H-M_alt    "P 1"
_space_group_IT_number       1

loop_
  _space_group_symop_operation_xyz
  'x, y, z'

loop_
  _atom_site_type_symbol
  _atom_site_label
  _atom_site_symmetry_multiplicity
  _atom_site_fract_x
  _atom_site_fract_y
  _atom_site_fract_z
  _atom_site_occupancy
  Li  Li1       1.0  0.38280884792376924  0.6776981862403062  0.6009625214967542  1.0000
  O   O1        1.0  0.6125452112358509  0.25622963590747183  0.4392498009098915  1.0000
  O   O2        1.0  0.8988982505780676  0.24808217037251978  0.5587708258331503  1.0000
  O   O3        1.0  0.5037885948328196  0.8328117451925063  0.46701371901178845  1.0000
  O   O4        1.0  0.17980700768186608  0.1828962101358158  0.40109386396763114  1.0000
  O   O5        1.0  0.035684547444461145  0.5252994642598594  0.86754356023485  1.0000
  O   O6        1.0  0.3849851872038679  0.7885216051197546  0.9498707591645612  1.0000
  O   O7        1.0  0.011793860881430085  0.8082336132932184  0.18613791585748984  1.0000
  O   O8        1.0  0.37808974142448903  0.9905858835486185  0.9588875546526978  1.0000
