data_image0
_chemical_formula_structural       LiO8
_chemical_formula_sum              "Li1 O8"
_cell_length_a       5.249754507535302
_cell_length_b       5.413199314268996
_cell_length_c       5.41221408469246
_cell_angle_alpha    66.06793548132961
_cell_angle_beta     55.04984107024682
_cell_angle_gamma    55.053804050826955

_space_group_name_H-M_alt    "P 1"
_space_group_IT_number       1

loop_
  _space_group_symop_operation_xyz
  'x, y, z'

loop_
  _atom_site_type_symbol
  _atom_site_label
  _atom_site_symmetry_multiplicity
  _atom_site_fract_x
  _atom_site_fract_y
  _atom_site_fract_z
  _atom_site_occupancy
  Li  Li1       1.0  0.4064969368583604  0.2862915188893851  0.058803878523526976  1.0000
  O   O1        1.0  0.4234250798487196  0.18627132974892646  0.707979359686604  1.0000
  O   O2        1.0  0.7799161050331662  0.004582702786855464  0.6585793120058341  1.0000
  O   O3        1.0  0.4796021868332332  0.5714622649357679  0.9191748320467958  1.0000
  O   O4        1.0  0.5869932885430131  0.7037473667133547  0.9274900115361078  1.0000
  O   O5        1.0  0.22495216088707082  0.544675939153386  0.25318475942987106  1.0000
  O   O6        1.0  0.07229113327657455  0.7247501660765536  0.6176226934029856  1.0000
  O   O7        1.0  0.7677630454654842  0.7949627616120196  0.11206677161658973  1.0000
  O   O8        1.0  0.5379801002400484  0.41865539110008854  0.28294405031794145  1.0000
