data_image0
_chemical_formula_structural       LiO8
_chemical_formula_sum              "Li1 O8"
_cell_length_a       5.249754507535302
_cell_length_b       5.413199314268996
_cell_length_c       5.41221408469246
_cell_angle_alpha    66.06793548132961
_cell_angle_beta     55.04984107024682
_cell_angle_gamma    55.053804050826955

_space_group_name_H-M_alt    "P 1"
_space_group_IT_number       1

loop_
  _space_group_symop_operation_xyz
  'x, y, z'

loop_
  _atom_site_type_symbol
  _atom_site_label
  _atom_site_symmetry_multiplicity
  _atom_site_fract_x
  _atom_site_fract_y
  _atom_site_fract_z
  _atom_site_occupancy
  Li  Li1       1.0  0.13831795731849184  0.5993652003039145  0.48368644079349465  1.0000
  O   O1        1.0  0.7058231086296134  0.08355765448066776  0.19743716485143992  1.0000
  O   O2        1.0  0.2910870018905669  0.41539939874531484  0.8904184552854062  1.0000
  O   O3        1.0  0.47077150217071306  0.5590924671905526  0.8938666616496018  1.0000
  O   O4        1.0  0.47730454130518574  0.8347935733092751  0.0025370395539354718  1.0000
  O   O5        1.0  0.4546271560966364  0.12180939012515068  0.27438970817804353  1.0000
  O   O6        1.0  0.14669458304760097  0.613281759204459  0.2732233112877287  1.0000
  O   O7        1.0  0.757418484904008  0.39744260099086404  0.6968882454555114  1.0000
  O   O8        1.0  0.570317994222119  0.7218957981323495  0.24401347898775239  1.0000
