data_image0
_chemical_formula_structural       LiO8
_chemical_formula_sum              "Li1 O8"
_cell_length_a       5.249754507535302
_cell_length_b       5.413199314268996
_cell_length_c       5.41221408469246
_cell_angle_alpha    66.06793548132961
_cell_angle_beta     55.04984107024682
_cell_angle_gamma    55.053804050826955

_space_group_name_H-M_alt    "P 1"
_space_group_IT_number       1

loop_
  _space_group_symop_operation_xyz
  'x, y, z'

loop_
  _atom_site_type_symbol
  _atom_site_label
  _atom_site_symmetry_multiplicity
  _atom_site_fract_x
  _atom_site_fract_y
  _atom_site_fract_z
  _atom_site_occupancy
  Li  Li1       1.0  0.4713649707092955  0.5690668237176624  0.8262310748310924  1.0000
  O   O1        1.0  0.5591338430707955  0.7350662047675529  0.6665972701654574  1.0000
  O   O2        1.0  0.5166849657476502  0.11585747250223077  0.07227305854210897  1.0000
  O   O3        1.0  0.8052910286934534  0.6976292273048017  0.08158624625350441  1.0000
  O   O4        1.0  0.7973906987446675  0.6467373145765514  0.2405989842161027  1.0000
  O   O5        1.0  0.7919230759554199  0.12876564633252485  0.6117221277264877  1.0000
  O   O6        1.0  0.9705820326756527  0.31328461362268545  0.7640879611964237  1.0000
  O   O7        1.0  0.6011159936354886  0.11598046043672028  0.13857964440090598  1.0000
  O   O8        1.0  0.7495546494605527  0.9284723043690697  0.06133333673673036  1.0000
