data_image0
_chemical_formula_structural       LiO8
_chemical_formula_sum              "Li1 O8"
_cell_length_a       5.249754507535302
_cell_length_b       5.413199314268996
_cell_length_c       5.41221408469246
_cell_angle_alpha    66.06793548132961
_cell_angle_beta     55.04984107024682
_cell_angle_gamma    55.053804050826955

_space_group_name_H-M_alt    "P 1"
_space_group_IT_number       1

loop_
  _space_group_symop_operation_xyz
  'x, y, z'

loop_
  _atom_site_type_symbol
  _atom_site_label
  _atom_site_symmetry_multiplicity
  _atom_site_fract_x
  _atom_site_fract_y
  _atom_site_fract_z
  _atom_site_occupancy
  Li  Li1       1.0  0.31928528852082394  0.163983702181703  0.30425335061073255  1.0000
  O   O1        1.0  0.09778795717965494  0.11900606966979321  0.17195239291513786  1.0000
  O   O2        1.0  0.9414761868459536  0.47889694489303736  0.8812914654388528  1.0000
  O   O3        1.0  0.40598701943454074  0.710656666730614  0.6862499328360521  1.0000
  O   O4        1.0  0.8686522926694142  0.4289221395950289  0.6103659505633448  1.0000
  O   O5        1.0  0.5359502579311766  0.17408067705537356  0.15409143395610592  1.0000
  O   O6        1.0  0.5981014934130364  0.9351956254010148  0.17786970985317208  1.0000
  O   O7        1.0  0.5384100624754069  0.7433212833919853  0.7840330737379233  1.0000
  O   O8        1.0  0.5582759546057083  0.8764031310259615  0.47862652342576695  1.0000
