data_image0
_chemical_formula_structural       LiO8
_chemical_formula_sum              "Li1 O8"
_cell_length_a       5.249754507535302
_cell_length_b       5.413199314268996
_cell_length_c       5.41221408469246
_cell_angle_alpha    66.06793548132961
_cell_angle_beta     55.04984107024682
_cell_angle_gamma    55.053804050826955

_space_group_name_H-M_alt    "P 1"
_space_group_IT_number       1

loop_
  _space_group_symop_operation_xyz
  'x, y, z'

loop_
  _atom_site_type_symbol
  _atom_site_label
  _atom_site_symmetry_multiplicity
  _atom_site_fract_x
  _atom_site_fract_y
  _atom_site_fract_z
  _atom_site_occupancy
  Li  Li1       1.0  0.25706381757818164  0.2527424552976676  0.3164176786448749  1.0000
  O   O1        1.0  0.6365269616384985  0.9052600616232134  0.6680509972289912  1.0000
  O   O2        1.0  0.31971437870211616  0.6616954397337782  0.7873159596500265  1.0000
  O   O3        1.0  0.08659634176360242  0.609787241499042  0.025363791855062212  1.0000
  O   O4        1.0  0.8024000565287004  0.8147985396400905  0.5440167780426517  1.0000
  O   O5        1.0  0.8732436678202973  0.581993606982846  0.3979066709259307  1.0000
  O   O6        1.0  0.30989649312547574  0.8710108358565023  0.9641035492913623  1.0000
  O   O7        1.0  0.48045584318833434  0.595456222360756  0.7269015258571265  1.0000
  O   O8        1.0  0.8720357207079275  0.23758954149581513  0.0205584871283353  1.0000
