data_image0
_chemical_formula_structural       LiO8
_chemical_formula_sum              "Li1 O8"
_cell_length_a       5.249754507535302
_cell_length_b       5.413199314268996
_cell_length_c       5.41221408469246
_cell_angle_alpha    66.06793548132961
_cell_angle_beta     55.04984107024682
_cell_angle_gamma    55.053804050826955

_space_group_name_H-M_alt    "P 1"
_space_group_IT_number       1

loop_
  _space_group_symop_operation_xyz
  'x, y, z'

loop_
  _atom_site_type_symbol
  _atom_site_label
  _atom_site_symmetry_multiplicity
  _atom_site_fract_x
  _atom_site_fract_y
  _atom_site_fract_z
  _atom_site_occupancy
  Li  Li1       1.0  0.8008425279888058  0.45702433560011  0.14140541774460758  1.0000
  O   O1        1.0  0.9996490218000744  0.7952214470595935  0.08481437333900033  1.0000
  O   O2        1.0  0.7309635193188804  0.5851131468927822  0.24992440351039136  1.0000
  O   O3        1.0  0.06739786622055277  0.2894163424950804  0.42285391116544346  1.0000
  O   O4        1.0  0.7489435866962904  0.2800510697177092  0.5534444349759156  1.0000
  O   O5        1.0  0.9818479778227562  0.8605881994495199  0.11101653661815014  1.0000
  O   O6        1.0  0.5805856704231789  0.9591537530488168  0.8493579966141231  1.0000
  O   O7        1.0  0.3789207508051362  0.8699579199990524  0.05263494850741779  1.0000
  O   O8        1.0  0.6199281728461301  0.06512101206079812  0.17388663742361476  1.0000
