data_image0
_chemical_formula_structural       LiO8
_chemical_formula_sum              "Li1 O8"
_cell_length_a       5.249754507535302
_cell_length_b       5.413199314268996
_cell_length_c       5.41221408469246
_cell_angle_alpha    66.06793548132961
_cell_angle_beta     55.04984107024682
_cell_angle_gamma    55.053804050826955

_space_group_name_H-M_alt    "P 1"
_space_group_IT_number       1

loop_
  _space_group_symop_operation_xyz
  'x, y, z'

loop_
  _atom_site_type_symbol
  _atom_site_label
  _atom_site_symmetry_multiplicity
  _atom_site_fract_x
  _atom_site_fract_y
  _atom_site_fract_z
  _atom_site_occupancy
  Li  Li1       1.0  0.58946077558371  0.32011923364891715  0.2308191304512519  1.0000
  O   O1        1.0  0.2522589498453698  0.10557750027898116  0.8919837787859279  1.0000
  O   O2        1.0  0.4489783286712612  0.050014456813881836  0.5350433253384672  1.0000
  O   O3        1.0  0.5656011048304137  0.872851185451168  0.944891369736844  1.0000
  O   O4        1.0  0.12518300914495306  0.643893220096599  0.8831591588368255  1.0000
  O   O5        1.0  0.2044449391958736  0.22922827647917643  0.49914285286080085  1.0000
  O   O6        1.0  0.7777639611397902  0.86750769056018  0.34457517594868925  1.0000
  O   O7        1.0  0.38560090136813585  0.48019486233043907  0.27774807374322563  1.0000
  O   O8        1.0  0.5313789189012255  0.0949769814450363  0.9213874912567661  1.0000
