data_image0
_chemical_formula_structural       LiO8
_chemical_formula_sum              "Li1 O8"
_cell_length_a       5.249754507535302
_cell_length_b       5.413199314268996
_cell_length_c       5.41221408469246
_cell_angle_alpha    66.06793548132961
_cell_angle_beta     55.04984107024682
_cell_angle_gamma    55.053804050826955

_space_group_name_H-M_alt    "P 1"
_space_group_IT_number       1

loop_
  _space_group_symop_operation_xyz
  'x, y, z'

loop_
  _atom_site_type_symbol
  _atom_site_label
  _atom_site_symmetry_multiplicity
  _atom_site_fract_x
  _atom_site_fract_y
  _atom_site_fract_z
  _atom_site_occupancy
  Li  Li1       1.0  0.07248515749564177  0.3979386813406194  0.22989725098380376  1.0000
  O   O1        1.0  0.4735221280271382  0.3528286754782073  0.33585935745400164  1.0000
  O   O2        1.0  0.21900260697206875  0.6401968903846953  0.9741721601509941  1.0000
  O   O3        1.0  0.8625302452221248  0.4817127112371651  0.9691365066699618  1.0000
  O   O4        1.0  0.6519733431799022  0.10947566796339281  0.422683929276495  1.0000
  O   O5        1.0  0.8822100699014683  0.8603205523434276  0.5554882449490995  1.0000
  O   O6        1.0  0.44927825019787093  0.6099079497388455  0.4230133627794892  1.0000
  O   O7        1.0  0.3267837191263112  0.3241720861489732  0.9670356499963617  1.0000
  O   O8        1.0  0.03496579912536646  0.10921543496768749  0.6883366494932304  1.0000
