data_image0
_chemical_formula_structural       LiO8
_chemical_formula_sum              "Li1 O8"
_cell_length_a       5.249754507535302
_cell_length_b       5.413199314268996
_cell_length_c       5.41221408469246
_cell_angle_alpha    66.06793548132961
_cell_angle_beta     55.04984107024682
_cell_angle_gamma    55.053804050826955

_space_group_name_H-M_alt    "P 1"
_space_group_IT_number       1

loop_
  _space_group_symop_operation_xyz
  'x, y, z'

loop_
  _atom_site_type_symbol
  _atom_site_label
  _atom_site_symmetry_multiplicity
  _atom_site_fract_x
  _atom_site_fract_y
  _atom_site_fract_z
  _atom_site_occupancy
  Li  Li1       1.0  0.004783956483459306  0.12509846905446764  0.14194767536600628  1.0000
  O   O1        1.0  0.9758063211622234  0.4078076439264766  0.6040228771987621  1.0000
  O   O2        1.0  0.25319717073733017  0.7396126219569643  0.6303905637421359  1.0000
  O   O3        1.0  0.48057741516810637  0.6490240368719  0.547935868265153  1.0000
  O   O4        1.0  0.3428709181047189  0.7564757292527764  0.14645109089290287  1.0000
  O   O5        1.0  0.5725719062397623  0.0003473077980835626  0.06342370398331987  1.0000
  O   O6        1.0  0.11488452791950277  0.8585732499122791  0.11579514797026436  1.0000
  O   O7        1.0  0.29080014621606054  0.07671175290077237  0.006681874403795973  1.0000
  O   O8        1.0  0.7327921409906466  0.8271314890799246  0.36678352743877696  1.0000
