data_image0
_chemical_formula_structural       LiO8
_chemical_formula_sum              "Li1 O8"
_cell_length_a       5.249754507535302
_cell_length_b       5.413199314268996
_cell_length_c       5.41221408469246
_cell_angle_alpha    66.06793548132961
_cell_angle_beta     55.04984107024682
_cell_angle_gamma    55.053804050826955

_space_group_name_H-M_alt    "P 1"
_space_group_IT_number       1

loop_
  _space_group_symop_operation_xyz
  'x, y, z'

loop_
  _atom_site_type_symbol
  _atom_site_label
  _atom_site_symmetry_multiplicity
  _atom_site_fract_x
  _atom_site_fract_y
  _atom_site_fract_z
  _atom_site_occupancy
  Li  Li1       1.0  0.48372290695209585  0.02305044610481133  0.6825770162711251  1.0000
  O   O1        1.0  0.9560791171281622  0.0978745730671271  0.1353199566149712  1.0000
  O   O2        1.0  0.10585260781000372  0.6516150670552037  0.24119988023317163  1.0000
  O   O3        1.0  0.11981432687363025  0.6109366360857535  0.22186097297321794  1.0000
  O   O4        1.0  0.5816418126229737  0.9279730311588921  0.5739139412953804  1.0000
  O   O5        1.0  0.10584788679829416  0.4068439402638595  0.5661176964018053  1.0000
  O   O6        1.0  0.5165098928778846  0.7207646400320673  0.5947302492925388  1.0000
  O   O7        1.0  0.3985776483852703  0.784699508417436  0.07442435135709502  1.0000
  O   O8        1.0  0.8345282605544071  0.3245513995987963  0.9925162798649119  1.0000
