data_image0
_chemical_formula_structural       LiO8
_chemical_formula_sum              "Li1 O8"
_cell_length_a       5.249754507535302
_cell_length_b       5.413199314268996
_cell_length_c       5.41221408469246
_cell_angle_alpha    66.06793548132961
_cell_angle_beta     55.04984107024682
_cell_angle_gamma    55.053804050826955

_space_group_name_H-M_alt    "P 1"
_space_group_IT_number       1

loop_
  _space_group_symop_operation_xyz
  'x, y, z'

loop_
  _atom_site_type_symbol
  _atom_site_label
  _atom_site_symmetry_multiplicity
  _atom_site_fract_x
  _atom_site_fract_y
  _atom_site_fract_z
  _atom_site_occupancy
  Li  Li1       1.0  0.2049780562648067  0.3160435418434915  0.3433785970416565  1.0000
  O   O1        1.0  0.0939170275097041  0.5980125387689696  0.551763325448194  1.0000
  O   O2        1.0  0.17577129931621194  0.6680138787174208  0.024548977697271823  1.0000
  O   O3        1.0  0.9120606106495899  0.26201321845174874  0.2594518893706734  1.0000
  O   O4        1.0  0.9752842775587078  0.703097401267998  0.36157377831172965  1.0000
  O   O5        1.0  0.7452074085292537  0.5495415450463952  0.6006175364163937  1.0000
  O   O6        1.0  0.7535852478701086  0.34587451922409684  0.8702145622143638  1.0000
  O   O7        1.0  0.10291785122412733  0.07916412592981281  0.18034917676453688  1.0000
  O   O8        1.0  0.5397374276801579  0.909237256091771  0.8553716927349595  1.0000
