data_image0
_chemical_formula_structural       LiO8
_chemical_formula_sum              "Li1 O8"
_cell_length_a       5.249754507535302
_cell_length_b       5.413199314268996
_cell_length_c       5.41221408469246
_cell_angle_alpha    66.06793548132961
_cell_angle_beta     55.04984107024682
_cell_angle_gamma    55.053804050826955

_space_group_name_H-M_alt    "P 1"
_space_group_IT_number       1

loop_
  _space_group_symop_operation_xyz
  'x, y, z'

loop_
  _atom_site_type_symbol
  _atom_site_label
  _atom_site_symmetry_multiplicity
  _atom_site_fract_x
  _atom_site_fract_y
  _atom_site_fract_z
  _atom_site_occupancy
  Li  Li1       1.0  0.4571936915930266  0.45341414595990415  0.8444425016709758  1.0000
  O   O1        1.0  0.27881621962571757  0.2506679901219062  0.695524287628853  1.0000
  O   O2        1.0  0.5494528676286503  0.37113790997297436  0.865368994834629  1.0000
  O   O3        1.0  0.6185473052502743  0.24422980108568026  0.7390947027770025  1.0000
  O   O4        1.0  0.3946545671074517  0.6527225784162312  0.9928554740237203  1.0000
  O   O5        1.0  0.6760372145851008  0.7417395563351814  0.5517269899790929  1.0000
  O   O6        1.0  0.2268951420800036  0.541965127740109  0.6869780679739943  1.0000
  O   O7        1.0  0.45006603023004743  0.5423198974698238  0.9208181556154074  1.0000
  O   O8        1.0  0.4858433038908885  0.8162262981503723  0.2463507033257386  1.0000
