data_image0
_chemical_formula_structural       LiO8
_chemical_formula_sum              "Li1 O8"
_cell_length_a       5.249754507535302
_cell_length_b       5.413199314268996
_cell_length_c       5.41221408469246
_cell_angle_alpha    66.06793548132961
_cell_angle_beta     55.04984107024682
_cell_angle_gamma    55.053804050826955

_space_group_name_H-M_alt    "P 1"
_space_group_IT_number       1

loop_
  _space_group_symop_operation_xyz
  'x, y, z'

loop_
  _atom_site_type_symbol
  _atom_site_label
  _atom_site_symmetry_multiplicity
  _atom_site_fract_x
  _atom_site_fract_y
  _atom_site_fract_z
  _atom_site_occupancy
  Li  Li1       1.0  0.2023968679730359  0.6693168352717116  0.07800269367589863  1.0000
  O   O1        1.0  0.6896341974161118  0.012000792566823293  0.39539543298370283  1.0000
  O   O2        1.0  0.5629500237834426  0.7896976259806863  0.5997967277462664  1.0000
  O   O3        1.0  0.38747378875621763  0.7035532893379255  0.20658901003577768  1.0000
  O   O4        1.0  0.008503258863882479  0.13129237644306713  0.46470487087188417  1.0000
  O   O5        1.0  0.51266667114119  0.7688900759196002  0.3661457716538479  1.0000
  O   O6        1.0  0.39230028000986295  0.06890818149518196  0.37679755066430687  1.0000
  O   O7        1.0  0.03567122823754687  0.6455808847094264  0.44407053808662766  1.0000
  O   O8        1.0  0.7493857605418217  0.3392415607980883  0.7022327707328522  1.0000
