data_image0
_chemical_formula_structural       LiO8
_chemical_formula_sum              "Li1 O8"
_cell_length_a       5.249754507535302
_cell_length_b       5.413199314268996
_cell_length_c       5.41221408469246
_cell_angle_alpha    66.06793548132961
_cell_angle_beta     55.04984107024682
_cell_angle_gamma    55.053804050826955

_space_group_name_H-M_alt    "P 1"
_space_group_IT_number       1

loop_
  _space_group_symop_operation_xyz
  'x, y, z'

loop_
  _atom_site_type_symbol
  _atom_site_label
  _atom_site_symmetry_multiplicity
  _atom_site_fract_x
  _atom_site_fract_y
  _atom_site_fract_z
  _atom_site_occupancy
  Li  Li1       1.0  0.5952685418250638  0.9968794573351261  0.2076359764181035  1.0000
  O   O1        1.0  0.9237204804475672  0.85752736267  0.24095484595520844  1.0000
  O   O2        1.0  0.22601286836871992  0.9677831398379535  0.20867722644380038  1.0000
  O   O3        1.0  0.9116091129500106  0.47878024126477214  0.19018047572819619  1.0000
  O   O4        1.0  0.5240588664003649  0.5431010092374962  0.5346126055399338  1.0000
  O   O5        1.0  0.5989029509729296  0.17316933284222813  0.013704938208915607  1.0000
  O   O6        1.0  0.8491524444149245  0.37894813084590395  0.7814059318899069  1.0000
  O   O7        1.0  0.4878986008258508  0.908916804467097  0.48892229586182623  1.0000
  O   O8        1.0  0.7763643425961586  0.6761522642988425  0.6217839439051698  1.0000
