data_image0
_chemical_formula_structural       LiO8
_chemical_formula_sum              "Li1 O8"
_cell_length_a       5.249754507535302
_cell_length_b       5.413199314268996
_cell_length_c       5.41221408469246
_cell_angle_alpha    66.06793548132961
_cell_angle_beta     55.04984107024682
_cell_angle_gamma    55.053804050826955

_space_group_name_H-M_alt    "P 1"
_space_group_IT_number       1

loop_
  _space_group_symop_operation_xyz
  'x, y, z'

loop_
  _atom_site_type_symbol
  _atom_site_label
  _atom_site_symmetry_multiplicity
  _atom_site_fract_x
  _atom_site_fract_y
  _atom_site_fract_z
  _atom_site_occupancy
  Li  Li1       1.0  0.1613609582566582  0.6371452337562147  0.95694556109612  1.0000
  O   O1        1.0  0.9202098066563789  0.8612245481630758  0.6001029856787108  1.0000
  O   O2        1.0  0.6969927844565618  0.5197423291833818  0.9974579338652987  1.0000
  O   O3        1.0  0.8835201787906826  0.014985394527414542  0.7928983734333457  1.0000
  O   O4        1.0  0.13504124218399838  0.1532907053907273  0.9054281163638009  1.0000
  O   O5        1.0  0.9979435513823205  0.48447009037358413  0.5363863840635661  1.0000
  O   O6        1.0  0.44163541599696954  0.18617881892836685  0.5430524449267313  1.0000
  O   O7        1.0  0.5335614812816516  0.732233794303319  0.7768938497296034  1.0000
  O   O8        1.0  0.3404688015395081  0.36384091373771454  0.6145674636777665  1.0000
