data_image0
_chemical_formula_structural       LiO8
_chemical_formula_sum              "Li1 O8"
_cell_length_a       5.249754507535302
_cell_length_b       5.413199314268996
_cell_length_c       5.41221408469246
_cell_angle_alpha    66.06793548132961
_cell_angle_beta     55.04984107024682
_cell_angle_gamma    55.053804050826955

_space_group_name_H-M_alt    "P 1"
_space_group_IT_number       1

loop_
  _space_group_symop_operation_xyz
  'x, y, z'

loop_
  _atom_site_type_symbol
  _atom_site_label
  _atom_site_symmetry_multiplicity
  _atom_site_fract_x
  _atom_site_fract_y
  _atom_site_fract_z
  _atom_site_occupancy
  Li  Li1       1.0  0.6722295808879011  0.03849636583360905  0.47221750377330807  1.0000
  O   O1        1.0  0.9170800461940969  0.6681140279262235  0.1759083700920705  1.0000
  O   O2        1.0  0.183582755113314  0.5477651756969848  0.5841583555404242  1.0000
  O   O3        1.0  0.9864658171397664  0.7630991184455951  0.8301815289098045  1.0000
  O   O4        1.0  0.9505793802052835  0.5591796529219764  0.24234264226889835  1.0000
  O   O5        1.0  0.7360637576832745  0.18297171629691888  0.12047451792092367  1.0000
  O   O6        1.0  0.6186269484563631  0.9534503699493395  0.00777265342979927  1.0000
  O   O7        1.0  0.2978771694107394  0.12702819290331746  0.6271771541212274  1.0000
  O   O8        1.0  0.13436641552376827  0.42481779810629305  0.7856109131268019  1.0000
