data_image0
_chemical_formula_structural       LiO8
_chemical_formula_sum              "Li1 O8"
_cell_length_a       5.249754507535302
_cell_length_b       5.413199314268996
_cell_length_c       5.41221408469246
_cell_angle_alpha    66.06793548132961
_cell_angle_beta     55.04984107024682
_cell_angle_gamma    55.053804050826955

_space_group_name_H-M_alt    "P 1"
_space_group_IT_number       1

loop_
  _space_group_symop_operation_xyz
  'x, y, z'

loop_
  _atom_site_type_symbol
  _atom_site_label
  _atom_site_symmetry_multiplicity
  _atom_site_fract_x
  _atom_site_fract_y
  _atom_site_fract_z
  _atom_site_occupancy
  Li  Li1       1.0  0.026421161852638875  0.03739122558567942  0.9659221478906801  1.0000
  O   O1        1.0  0.1124961765700192  0.5342673409062328  0.6916950178690016  1.0000
  O   O2        1.0  0.34503291031603656  0.41154539932587575  0.799435086939674  1.0000
  O   O3        1.0  0.5380259656448771  0.8828276027682911  0.5848475500844899  1.0000
  O   O4        1.0  0.5936546118541486  0.3514225542586633  0.4126930225000791  1.0000
  O   O5        1.0  0.661875117715212  0.8427109053444113  0.23006445407755294  1.0000
  O   O6        1.0  0.7453075565994634  0.7663367437147564  0.03238830904137302  1.0000
  O   O7        1.0  0.8362473728844861  0.10441772977120678  0.40204823023290714  1.0000
  O   O8        1.0  0.198447741195368  0.3619436679879051  0.9554796254096907  1.0000
