data_image0
_chemical_formula_structural       LiO8
_chemical_formula_sum              "Li1 O8"
_cell_length_a       5.249754507535302
_cell_length_b       5.413199314268996
_cell_length_c       5.41221408469246
_cell_angle_alpha    66.06793548132961
_cell_angle_beta     55.04984107024682
_cell_angle_gamma    55.053804050826955

_space_group_name_H-M_alt    "P 1"
_space_group_IT_number       1

loop_
  _space_group_symop_operation_xyz
  'x, y, z'

loop_
  _atom_site_type_symbol
  _atom_site_label
  _atom_site_symmetry_multiplicity
  _atom_site_fract_x
  _atom_site_fract_y
  _atom_site_fract_z
  _atom_site_occupancy
  Li  Li1       1.0  0.7667916169933733  0.8142032687789929  0.34705144455917036  1.0000
  O   O1        1.0  0.10430346727949313  0.36174073655651995  0.36647886358319326  1.0000
  O   O2        1.0  0.2869618384296324  0.41123927174057273  0.44416311079497106  1.0000
  O   O3        1.0  0.6655356688329022  0.6566485288033235  0.19335450995002645  1.0000
  O   O4        1.0  0.42203355872896253  0.25169374516906373  0.9779958326642912  1.0000
  O   O5        1.0  0.7257867646058713  0.4868744671261034  0.42247815588024906  1.0000
  O   O6        1.0  0.8585298019975696  0.7633231502975235  0.4744718230568523  1.0000
  O   O7        1.0  0.6459198528423862  0.9622000207856631  0.21579023961007593  1.0000
  O   O8        1.0  0.787758400241831  0.6469036532998746  0.046223787266111316  1.0000
