data_image0
_chemical_formula_structural       LiO8
_chemical_formula_sum              "Li1 O8"
_cell_length_a       5.249754507535302
_cell_length_b       5.413199314268996
_cell_length_c       5.41221408469246
_cell_angle_alpha    66.06793548132961
_cell_angle_beta     55.04984107024682
_cell_angle_gamma    55.053804050826955

_space_group_name_H-M_alt    "P 1"
_space_group_IT_number       1

loop_
  _space_group_symop_operation_xyz
  'x, y, z'

loop_
  _atom_site_type_symbol
  _atom_site_label
  _atom_site_symmetry_multiplicity
  _atom_site_fract_x
  _atom_site_fract_y
  _atom_site_fract_z
  _atom_site_occupancy
  Li  Li1       1.0  0.3014867612863412  0.2600771167772713  0.9054792842294219  1.0000
  O   O1        1.0  0.32575015130084495  0.6215916566745534  0.9889085790486227  1.0000
  O   O2        1.0  0.7614600229845889  0.8429105205626488  0.577271366611317  1.0000
  O   O3        1.0  0.7794357889329859  0.3138580585506645  0.10859139704465548  1.0000
  O   O4        1.0  0.5543429891527154  0.5894900016110238  0.8363538473070165  1.0000
  O   O5        1.0  0.8926393690818202  0.15084269206998613  0.7251161125796486  1.0000
  O   O6        1.0  0.9092103490200236  0.2233847911013065  0.6617316931319825  1.0000
  O   O7        1.0  0.6475811417488444  0.2572642901351765  0.12050269005192149  1.0000
  O   O8        1.0  0.8861408174538141  0.7661805593903779  0.5151208440775399  1.0000
