data_image0
_chemical_formula_structural       LiO8
_chemical_formula_sum              "Li1 O8"
_cell_length_a       5.249754507535302
_cell_length_b       5.413199314268996
_cell_length_c       5.41221408469246
_cell_angle_alpha    66.06793548132961
_cell_angle_beta     55.04984107024682
_cell_angle_gamma    55.053804050826955

_space_group_name_H-M_alt    "P 1"
_space_group_IT_number       1

loop_
  _space_group_symop_operation_xyz
  'x, y, z'

loop_
  _atom_site_type_symbol
  _atom_site_label
  _atom_site_symmetry_multiplicity
  _atom_site_fract_x
  _atom_site_fract_y
  _atom_site_fract_z
  _atom_site_occupancy
  Li  Li1       1.0  0.843817684938081  0.4345668417029813  0.5788447459483521  1.0000
  O   O1        1.0  0.16275449238835904  0.4107195991758896  0.38163790101111417  1.0000
  O   O2        1.0  0.7042872754310947  0.8622247926111637  0.6431687113370899  1.0000
  O   O3        1.0  0.7977263991552235  0.2249565395677564  0.7476690210951702  1.0000
  O   O4        1.0  0.004128182667439972  0.5340025819200314  0.6562340031762304  1.0000
  O   O5        1.0  0.566042257354546  0.2118199965381411  0.014017694263639413  1.0000
  O   O6        1.0  0.007662913567468621  0.6552386904676055  0.8294681483653221  1.0000
  O   O7        1.0  0.597287669250008  0.5845074391778695  0.7044268780296363  1.0000
  O   O8        1.0  0.34228295881712256  0.4188611176479391  0.9590162036726095  1.0000
