data_image0
_chemical_formula_structural       LiO8
_chemical_formula_sum              "Li1 O8"
_cell_length_a       5.249754507535302
_cell_length_b       5.413199314268996
_cell_length_c       5.41221408469246
_cell_angle_alpha    66.06793548132961
_cell_angle_beta     55.04984107024682
_cell_angle_gamma    55.053804050826955

_space_group_name_H-M_alt    "P 1"
_space_group_IT_number       1

loop_
  _space_group_symop_operation_xyz
  'x, y, z'

loop_
  _atom_site_type_symbol
  _atom_site_label
  _atom_site_symmetry_multiplicity
  _atom_site_fract_x
  _atom_site_fract_y
  _atom_site_fract_z
  _atom_site_occupancy
  Li  Li1       1.0  0.3125595835732895  0.024939404533242282  0.026152421828044226  1.0000
  O   O1        1.0  0.4929500917272023  0.9561826065717159  0.08982215671866811  1.0000
  O   O2        1.0  0.77918610445007  0.08471110980433139  0.5496649878106581  1.0000
  O   O3        1.0  0.5273012197032543  0.6718297835529405  0.8110739112059591  1.0000
  O   O4        1.0  0.31605610386675664  0.7062187088394616  0.07073007421902844  1.0000
  O   O5        1.0  0.6873737226218282  0.6942091164111872  0.5022529762304089  1.0000
  O   O6        1.0  0.17570156756110755  0.12279014427137724  0.3829905710972845  1.0000
  O   O7        1.0  0.2542167251555991  0.9479357198504665  0.611229431943002  1.0000
  O   O8        1.0  0.08672695207227576  0.7294651292591041  0.786964533792883  1.0000
