data_image0
_chemical_formula_structural       LiO8
_chemical_formula_sum              "Li1 O8"
_cell_length_a       5.249754507535302
_cell_length_b       5.413199314268996
_cell_length_c       5.41221408469246
_cell_angle_alpha    66.06793548132961
_cell_angle_beta     55.04984107024682
_cell_angle_gamma    55.053804050826955

_space_group_name_H-M_alt    "P 1"
_space_group_IT_number       1

loop_
  _space_group_symop_operation_xyz
  'x, y, z'

loop_
  _atom_site_type_symbol
  _atom_site_label
  _atom_site_symmetry_multiplicity
  _atom_site_fract_x
  _atom_site_fract_y
  _atom_site_fract_z
  _atom_site_occupancy
  Li  Li1       1.0  0.0038737732421054716  0.9309432348165956  0.8217562742676279  1.0000
  O   O1        1.0  0.3023484923942732  0.12388497811582866  0.4510595831666855  1.0000
  O   O2        1.0  0.37529617330109843  0.965093069871017  0.9188620162619188  1.0000
  O   O3        1.0  0.6116478080807042  0.7219392433588467  0.3766219432753388  1.0000
  O   O4        1.0  0.19967157704670768  0.4377587282391069  0.41520635709376563  1.0000
  O   O5        1.0  0.9345837046017778  0.40361745168108243  0.5163418139102944  1.0000
  O   O6        1.0  0.20481795289221139  0.3522468953926037  0.35669163353319533  1.0000
  O   O7        1.0  0.8902004678078388  0.24427084145982425  0.009673811477734162  1.0000
  O   O8        1.0  0.7742804445705573  0.4393821634188768  0.6095323801386519  1.0000
