data_image0
_chemical_formula_structural       LiO8
_chemical_formula_sum              "Li1 O8"
_cell_length_a       5.249754507535302
_cell_length_b       5.413199314268996
_cell_length_c       5.41221408469246
_cell_angle_alpha    66.06793548132961
_cell_angle_beta     55.04984107024682
_cell_angle_gamma    55.053804050826955

_space_group_name_H-M_alt    "P 1"
_space_group_IT_number       1

loop_
  _space_group_symop_operation_xyz
  'x, y, z'

loop_
  _atom_site_type_symbol
  _atom_site_label
  _atom_site_symmetry_multiplicity
  _atom_site_fract_x
  _atom_site_fract_y
  _atom_site_fract_z
  _atom_site_occupancy
  Li  Li1       1.0  0.7056746903298858  0.1369452555045072  0.9736592200569092  1.0000
  O   O1        1.0  0.2548160694714241  0.7332817343960727  0.23474339270845235  1.0000
  O   O2        1.0  0.22757888903651402  0.325458317280642  0.3534392695329558  1.0000
  O   O3        1.0  0.5661968978328673  0.7318294484480958  0.4753912590537297  1.0000
  O   O4        1.0  0.09169031484565515  0.9120504611269737  0.1696995827237231  1.0000
  O   O5        1.0  0.21398117280062934  0.8200254993314786  0.42808503766922357  1.0000
  O   O6        1.0  0.8887173417787064  0.9557083366021573  0.8018827087931051  1.0000
  O   O7        1.0  0.44926023104790147  0.9664519965861569  0.07062675729700629  1.0000
  O   O8        1.0  0.24425923370101055  0.9474701589352845  0.11457202663310895  1.0000
