data_image0
_chemical_formula_structural       LiO8
_chemical_formula_sum              "Li1 O8"
_cell_length_a       5.249754507535302
_cell_length_b       5.413199314268996
_cell_length_c       5.41221408469246
_cell_angle_alpha    66.06793548132961
_cell_angle_beta     55.04984107024682
_cell_angle_gamma    55.053804050826955

_space_group_name_H-M_alt    "P 1"
_space_group_IT_number       1

loop_
  _space_group_symop_operation_xyz
  'x, y, z'

loop_
  _atom_site_type_symbol
  _atom_site_label
  _atom_site_symmetry_multiplicity
  _atom_site_fract_x
  _atom_site_fract_y
  _atom_site_fract_z
  _atom_site_occupancy
  Li  Li1       1.0  0.2638414303407757  0.10599080088284296  0.11261491339409524  1.0000
  O   O1        1.0  0.9001452904966687  0.21766517656347872  0.1574780883139968  1.0000
  O   O2        1.0  0.36897178308581857  0.5354862800520008  0.6246506942577632  1.0000
  O   O3        1.0  0.41190055602545783  0.20135953027925524  0.8767530349776416  1.0000
  O   O4        1.0  0.2263279878884994  0.6860926318146667  0.17038379882183818  1.0000
  O   O5        1.0  0.05098247740228601  0.4199986208702233  0.45014421537675275  1.0000
  O   O6        1.0  0.8674090218956323  0.4699630265971422  0.8391526601323904  1.0000
  O   O7        1.0  0.7756513773264828  0.6010895385162378  0.6259798968423809  1.0000
  O   O8        1.0  0.8238111677403381  0.6108910612618104  0.5682580325081172  1.0000
