data_image0
_chemical_formula_structural       LiO8
_chemical_formula_sum              "Li1 O8"
_cell_length_a       5.249754507535302
_cell_length_b       5.413199314268996
_cell_length_c       5.41221408469246
_cell_angle_alpha    66.06793548132961
_cell_angle_beta     55.04984107024682
_cell_angle_gamma    55.053804050826955

_space_group_name_H-M_alt    "P 1"
_space_group_IT_number       1

loop_
  _space_group_symop_operation_xyz
  'x, y, z'

loop_
  _atom_site_type_symbol
  _atom_site_label
  _atom_site_symmetry_multiplicity
  _atom_site_fract_x
  _atom_site_fract_y
  _atom_site_fract_z
  _atom_site_occupancy
  Li  Li1       1.0  0.6911576736400633  0.8988127820489424  0.8272127918750058  1.0000
  O   O1        1.0  0.7166016593698963  0.21253307170438518  0.3768827441354423  1.0000
  O   O2        1.0  0.67282371272534  0.25660383410511134  0.051864083456337084  1.0000
  O   O3        1.0  0.42624160147728674  0.10094543768123287  0.1389061794053461  1.0000
  O   O4        1.0  0.2337486418372876  0.7748836706064779  0.4676500733911695  1.0000
  O   O5        1.0  0.6378380631096263  0.2043739894622334  0.6317292284345086  1.0000
  O   O6        1.0  0.17935982815073892  0.3818881190242607  0.9432137706698853  1.0000
  O   O7        1.0  0.8043709260872518  0.017517866218193845  0.8434141124919918  1.0000
  O   O8        1.0  0.14432171609039202  0.9401083844239766  0.3301353313967219  1.0000
