data_image0
_chemical_formula_structural       LiO8
_chemical_formula_sum              "Li1 O8"
_cell_length_a       5.249754507535302
_cell_length_b       5.413199314268996
_cell_length_c       5.41221408469246
_cell_angle_alpha    66.06793548132961
_cell_angle_beta     55.04984107024682
_cell_angle_gamma    55.053804050826955

_space_group_name_H-M_alt    "P 1"
_space_group_IT_number       1

loop_
  _space_group_symop_operation_xyz
  'x, y, z'

loop_
  _atom_site_type_symbol
  _atom_site_label
  _atom_site_symmetry_multiplicity
  _atom_site_fract_x
  _atom_site_fract_y
  _atom_site_fract_z
  _atom_site_occupancy
  Li  Li1       1.0  0.2248272997477443  0.9589329905092256  0.16457092509995874  1.0000
  O   O1        1.0  0.7589089038287717  0.8152818613701136  0.0016810312801922578  1.0000
  O   O2        1.0  0.3310894155062254  0.004908390869751145  0.3160747352664188  1.0000
  O   O3        1.0  0.924098941323976  0.6168913618426224  0.7099986622154688  1.0000
  O   O4        1.0  0.15920618301174727  0.255586153068899  0.434508307672985  1.0000
  O   O5        1.0  0.8380336728452136  0.4174381216072547  0.6099269328288699  1.0000
  O   O6        1.0  0.1705903132736153  0.43405727351298395  0.8776075958263121  1.0000
  O   O7        1.0  0.5082411184714495  0.18981267108743283  0.5658098256836013  1.0000
  O   O8        1.0  0.016594051440582902  0.6876102456958151  0.14278748381958817  1.0000
