data_image0
_chemical_formula_structural       LiO8
_chemical_formula_sum              "Li1 O8"
_cell_length_a       5.249754507535302
_cell_length_b       5.413199314268996
_cell_length_c       5.41221408469246
_cell_angle_alpha    66.06793548132961
_cell_angle_beta     55.04984107024682
_cell_angle_gamma    55.053804050826955

_space_group_name_H-M_alt    "P 1"
_space_group_IT_number       1

loop_
  _space_group_symop_operation_xyz
  'x, y, z'

loop_
  _atom_site_type_symbol
  _atom_site_label
  _atom_site_symmetry_multiplicity
  _atom_site_fract_x
  _atom_site_fract_y
  _atom_site_fract_z
  _atom_site_occupancy
  Li  Li1       1.0  0.0962512770971955  0.4097592347489609  0.5821647674503225  1.0000
  O   O1        1.0  0.0628832348546382  0.17959129307890365  0.8943814689114085  1.0000
  O   O2        1.0  0.3210963462742189  0.6899054222860386  0.23093768254195624  1.0000
  O   O3        1.0  0.12409852243123964  0.15464500892774424  0.7688583005912122  1.0000
  O   O4        1.0  0.9379782287675269  0.3271354477402255  0.832522968163488  1.0000
  O   O5        1.0  0.6048120636328775  0.4264091195343944  0.6177001810486047  1.0000
  O   O6        1.0  0.7869189836864736  0.9464295597404302  0.7712070130312867  1.0000
  O   O7        1.0  0.3154855664291887  0.9498541333051618  0.030904972920126283  1.0000
  O   O8        1.0  0.4896375622509819  0.7591720030378823  0.7437019538713465  1.0000
