data_image0
_chemical_formula_structural       LiO8
_chemical_formula_sum              "Li1 O8"
_cell_length_a       5.249754507535302
_cell_length_b       5.413199314268996
_cell_length_c       5.41221408469246
_cell_angle_alpha    66.06793548132961
_cell_angle_beta     55.04984107024682
_cell_angle_gamma    55.053804050826955

_space_group_name_H-M_alt    "P 1"
_space_group_IT_number       1

loop_
  _space_group_symop_operation_xyz
  'x, y, z'

loop_
  _atom_site_type_symbol
  _atom_site_label
  _atom_site_symmetry_multiplicity
  _atom_site_fract_x
  _atom_site_fract_y
  _atom_site_fract_z
  _atom_site_occupancy
  Li  Li1       1.0  0.6595095995776425  0.8320678010342206  0.15865212583486055  1.0000
  O   O1        1.0  0.07473404340449274  0.04627941806524305  0.08686250601611434  1.0000
  O   O2        1.0  0.24973633819756458  0.2133141266183931  0.8298489108816227  1.0000
  O   O3        1.0  0.8289117913890749  0.4249212437386021  0.22175609294738408  1.0000
  O   O4        1.0  0.701467097201828  0.8444472464864887  0.13747903753415613  1.0000
  O   O5        1.0  0.16349426589002647  0.09385842414437695  0.8939272781936651  1.0000
  O   O6        1.0  0.3672532665982704  0.9215865924987625  0.9296018037869827  1.0000
  O   O7        1.0  0.5661556202227374  0.8649636529473081  0.8755940377319007  1.0000
  O   O8        1.0  0.8131113909687713  0.6411833475140156  0.18977099071460657  1.0000
