data_image0
_chemical_formula_structural       LiO8
_chemical_formula_sum              "Li1 O8"
_cell_length_a       5.249754507535302
_cell_length_b       5.413199314268996
_cell_length_c       5.41221408469246
_cell_angle_alpha    66.06793548132961
_cell_angle_beta     55.04984107024682
_cell_angle_gamma    55.053804050826955

_space_group_name_H-M_alt    "P 1"
_space_group_IT_number       1

loop_
  _space_group_symop_operation_xyz
  'x, y, z'

loop_
  _atom_site_type_symbol
  _atom_site_label
  _atom_site_symmetry_multiplicity
  _atom_site_fract_x
  _atom_site_fract_y
  _atom_site_fract_z
  _atom_site_occupancy
  Li  Li1       1.0  0.4398972116775184  0.5128051795695399  0.0470445462634288  1.0000
  O   O1        1.0  0.9876043489086541  0.2914266805685699  0.49165345401952587  1.0000
  O   O2        1.0  0.2533126425195604  0.2506995370540537  0.9137626399743795  1.0000
  O   O3        1.0  0.4375405391547389  0.08901145949147349  0.042039993474340065  1.0000
  O   O4        1.0  0.05507163426074868  0.6475788202377757  0.2714484593492372  1.0000
  O   O5        1.0  0.7958433884769391  0.2139069418701638  0.638669445632118  1.0000
  O   O6        1.0  0.9341280830165717  0.26166913740870257  0.3071829326459339  1.0000
  O   O7        1.0  0.7310665481305634  0.4742297555191808  0.5511336164844138  1.0000
  O   O8        1.0  0.3051462989940992  0.9387896642016074  0.7245352843019066  1.0000
