data_image0
_chemical_formula_structural       LiO8
_chemical_formula_sum              "Li1 O8"
_cell_length_a       5.249754507535302
_cell_length_b       5.413199314268996
_cell_length_c       5.41221408469246
_cell_angle_alpha    66.06793548132961
_cell_angle_beta     55.04984107024682
_cell_angle_gamma    55.053804050826955

_space_group_name_H-M_alt    "P 1"
_space_group_IT_number       1

loop_
  _space_group_symop_operation_xyz
  'x, y, z'

loop_
  _atom_site_type_symbol
  _atom_site_label
  _atom_site_symmetry_multiplicity
  _atom_site_fract_x
  _atom_site_fract_y
  _atom_site_fract_z
  _atom_site_occupancy
  Li  Li1       1.0  0.8088094765134315  0.5041865178121725  0.6553688239837356  1.0000
  O   O1        1.0  0.4457005785568384  0.16295351235175204  0.8225169299889643  1.0000
  O   O2        1.0  0.9937789018118983  0.8713707716495236  0.5309001345437636  1.0000
  O   O3        1.0  0.8216720620516469  0.45369591022289235  0.8619079058941139  1.0000
  O   O4        1.0  0.04962267108263063  0.14616458660584186  0.5821782744477844  1.0000
  O   O5        1.0  0.8084302560232999  0.36516887554942556  0.49308371028325837  1.0000
  O   O6        1.0  0.030326037483204615  0.7348651108355142  0.2879419628821829  1.0000
  O   O7        1.0  0.3512152744898902  0.685314114328456  0.05308048594746495  1.0000
  O   O8        1.0  0.15315185939110165  0.422596600250543  0.7291605828075234  1.0000
