data_image0
_chemical_formula_structural       LiO8
_chemical_formula_sum              "Li1 O8"
_cell_length_a       5.249754507535302
_cell_length_b       5.413199314268996
_cell_length_c       5.41221408469246
_cell_angle_alpha    66.06793548132961
_cell_angle_beta     55.04984107024682
_cell_angle_gamma    55.053804050826955

_space_group_name_H-M_alt    "P 1"
_space_group_IT_number       1

loop_
  _space_group_symop_operation_xyz
  'x, y, z'

loop_
  _atom_site_type_symbol
  _atom_site_label
  _atom_site_symmetry_multiplicity
  _atom_site_fract_x
  _atom_site_fract_y
  _atom_site_fract_z
  _atom_site_occupancy
  Li  Li1       1.0  0.930076582812454  0.7005764927664657  0.5841569859761471  1.0000
  O   O1        1.0  0.9757784223738879  0.39896492060457867  0.5275848286579761  1.0000
  O   O2        1.0  0.21136871808254654  0.14800217417885086  0.4458256761698074  1.0000
  O   O3        1.0  0.49722302956124054  0.9828584664275439  0.2233067058811713  1.0000
  O   O4        1.0  0.6417303307947115  0.3788925207847935  0.36555062127658644  1.0000
  O   O5        1.0  0.7134043137592627  0.720101593853606  0.8958176712875137  1.0000
  O   O6        1.0  0.48328752168131595  0.5751189177811256  0.9421131526280169  1.0000
  O   O7        1.0  0.45739308357340747  0.7169845102952692  0.38605587804549657  1.0000
  O   O8        1.0  0.2527632722085258  0.7111961461963219  0.6425477120580894  1.0000
