data_image0
_chemical_formula_structural       LiO8
_chemical_formula_sum              "Li1 O8"
_cell_length_a       5.249754507535302
_cell_length_b       5.413199314268996
_cell_length_c       5.41221408469246
_cell_angle_alpha    66.06793548132961
_cell_angle_beta     55.04984107024682
_cell_angle_gamma    55.053804050826955

_space_group_name_H-M_alt    "P 1"
_space_group_IT_number       1

loop_
  _space_group_symop_operation_xyz
  'x, y, z'

loop_
  _atom_site_type_symbol
  _atom_site_label
  _atom_site_symmetry_multiplicity
  _atom_site_fract_x
  _atom_site_fract_y
  _atom_site_fract_z
  _atom_site_occupancy
  Li  Li1       1.0  0.0896018923890125  0.752213440270765  0.6564715863731223  1.0000
  O   O1        1.0  0.47331431659884515  0.8286001214922223  0.4037862254505473  1.0000
  O   O2        1.0  0.45034880437777614  0.41827579695447525  0.19123739528886574  1.0000
  O   O3        1.0  0.9132636375249064  0.2496680352777716  0.8615634678187618  1.0000
  O   O4        1.0  0.8028940446057682  0.10116672525475678  0.9524947113031317  1.0000
  O   O5        1.0  0.8005770598665833  0.8072468736994054  0.32346569396016633  1.0000
  O   O6        1.0  0.8609997486467993  0.28730254612243655  0.6081044008553178  1.0000
  O   O7        1.0  0.2077439788223927  0.7152436965066808  0.7572444375384038  1.0000
  O   O8        1.0  0.26136353125449796  0.7096109704744817  0.24853601542161208  1.0000
