data_image0
_chemical_formula_structural       LiO8
_chemical_formula_sum              "Li1 O8"
_cell_length_a       5.249754507535302
_cell_length_b       5.413199314268996
_cell_length_c       5.41221408469246
_cell_angle_alpha    66.06793548132961
_cell_angle_beta     55.04984107024682
_cell_angle_gamma    55.053804050826955

_space_group_name_H-M_alt    "P 1"
_space_group_IT_number       1

loop_
  _space_group_symop_operation_xyz
  'x, y, z'

loop_
  _atom_site_type_symbol
  _atom_site_label
  _atom_site_symmetry_multiplicity
  _atom_site_fract_x
  _atom_site_fract_y
  _atom_site_fract_z
  _atom_site_occupancy
  Li  Li1       1.0  0.7238635346568856  0.8525967179250298  0.14934418000740024  1.0000
  O   O1        1.0  0.10930685672005858  0.9178154924637987  0.9482896013931637  1.0000
  O   O2        1.0  0.1495449741585304  0.15667850213432288  0.8565242607058963  1.0000
  O   O3        1.0  0.8622352341306652  0.6083632473841547  0.7672517861541239  1.0000
  O   O4        1.0  0.08383793360057723  0.2455659057715458  0.4509507544940945  1.0000
  O   O5        1.0  0.2259115996971044  0.899215928122139  0.45448109090212085  1.0000
  O   O6        1.0  0.9882106414981546  0.7638234724718883  0.5271082288495386  1.0000
  O   O7        1.0  0.08239407719979397  0.8010815902874846  0.336689148666963  1.0000
  O   O8        1.0  0.48238619195657684  0.39680658294187054  0.9970465255068799  1.0000
