data_image0
_chemical_formula_structural       LiO8
_chemical_formula_sum              "Li1 O8"
_cell_length_a       5.249754507535302
_cell_length_b       5.413199314268996
_cell_length_c       5.41221408469246
_cell_angle_alpha    66.06793548132961
_cell_angle_beta     55.04984107024682
_cell_angle_gamma    55.053804050826955

_space_group_name_H-M_alt    "P 1"
_space_group_IT_number       1

loop_
  _space_group_symop_operation_xyz
  'x, y, z'

loop_
  _atom_site_type_symbol
  _atom_site_label
  _atom_site_symmetry_multiplicity
  _atom_site_fract_x
  _atom_site_fract_y
  _atom_site_fract_z
  _atom_site_occupancy
  Li  Li1       1.0  0.9049418942253951  0.1135697805537852  0.07882404370719875  1.0000
  O   O1        1.0  0.5212616310451956  0.4226057117635653  0.8489875947323924  1.0000
  O   O2        1.0  0.2697567922987787  0.08262588109833313  0.34589426500785336  1.0000
  O   O3        1.0  0.19450874695143483  0.4353874133899964  0.15746310285248555  1.0000
  O   O4        1.0  0.4514649963041455  0.7732589448142531  0.6309275668844179  1.0000
  O   O5        1.0  0.8878895350353169  0.613804722970241  0.35129394657997004  1.0000
  O   O6        1.0  0.4540461568531935  0.5740831116760035  0.036604996988016  1.0000
  O   O7        1.0  0.6212709975801651  0.4700969578853851  0.6861141736983285  1.0000
  O   O8        1.0  0.8386606016534621  0.7989680045783487  0.9835843454586666  1.0000
