data_image0
_chemical_formula_structural       LiO8
_chemical_formula_sum              "Li1 O8"
_cell_length_a       5.249754507535302
_cell_length_b       5.413199314268996
_cell_length_c       5.41221408469246
_cell_angle_alpha    66.06793548132961
_cell_angle_beta     55.04984107024682
_cell_angle_gamma    55.053804050826955

_space_group_name_H-M_alt    "P 1"
_space_group_IT_number       1

loop_
  _space_group_symop_operation_xyz
  'x, y, z'

loop_
  _atom_site_type_symbol
  _atom_site_label
  _atom_site_symmetry_multiplicity
  _atom_site_fract_x
  _atom_site_fract_y
  _atom_site_fract_z
  _atom_site_occupancy
  Li  Li1       1.0  0.907157206354924  0.18123609479278002  0.22645237129957252  1.0000
  O   O1        1.0  0.49072132990708894  0.6150923150386554  0.5599573781352625  1.0000
  O   O2        1.0  0.4301887230569257  0.8482864727133013  0.6430209909525146  1.0000
  O   O3        1.0  0.6349242165777156  0.052580821503127595  0.3466686593897066  1.0000
  O   O4        1.0  0.0620639019915501  0.07325434124838281  0.07753058324252038  1.0000
  O   O5        1.0  0.06022446195778741  0.2658163771880844  0.820158228321155  1.0000
  O   O6        1.0  0.5459937697861794  0.9008962483292748  0.45641571993591157  1.0000
  O   O7        1.0  0.06382716476098693  0.015049486182975746  0.8752661075487111  1.0000
  O   O8        1.0  0.2920479893641499  0.9822234972926651  0.6509590385121835  1.0000
