data_image0
_chemical_formula_structural       LiO8
_chemical_formula_sum              "Li1 O8"
_cell_length_a       5.249754507535302
_cell_length_b       5.413199314268996
_cell_length_c       5.41221408469246
_cell_angle_alpha    66.06793548132961
_cell_angle_beta     55.04984107024682
_cell_angle_gamma    55.053804050826955

_space_group_name_H-M_alt    "P 1"
_space_group_IT_number       1

loop_
  _space_group_symop_operation_xyz
  'x, y, z'

loop_
  _atom_site_type_symbol
  _atom_site_label
  _atom_site_symmetry_multiplicity
  _atom_site_fract_x
  _atom_site_fract_y
  _atom_site_fract_z
  _atom_site_occupancy
  Li  Li1       1.0  0.889276146688502  0.7021145066366756  0.292858410298777  1.0000
  O   O1        1.0  0.3982700941976063  0.235032428822457  0.8167480531003886  1.0000
  O   O2        1.0  0.23597140919665094  0.49030472587853957  0.19114499303118748  1.0000
  O   O3        1.0  0.11660803441323253  0.8490342838175877  0.5193287362613717  1.0000
  O   O4        1.0  0.18121636075932912  0.05873995388241937  0.18238663193054094  1.0000
  O   O5        1.0  0.7297444904058779  0.4013812107884114  0.12987984410214892  1.0000
  O   O6        1.0  0.024662693078527642  0.34114611626667113  0.3663085370098287  1.0000
  O   O7        1.0  0.9820079284526386  0.4701943481622992  0.5089694123629407  1.0000
  O   O8        1.0  0.13692631300936267  0.4854641524194836  0.5023014739631905  1.0000
