data_image0
_chemical_formula_structural       LiO8
_chemical_formula_sum              "Li1 O8"
_cell_length_a       5.249754507535302
_cell_length_b       5.413199314268996
_cell_length_c       5.41221408469246
_cell_angle_alpha    66.06793548132961
_cell_angle_beta     55.04984107024682
_cell_angle_gamma    55.053804050826955

_space_group_name_H-M_alt    "P 1"
_space_group_IT_number       1

loop_
  _space_group_symop_operation_xyz
  'x, y, z'

loop_
  _atom_site_type_symbol
  _atom_site_label
  _atom_site_symmetry_multiplicity
  _atom_site_fract_x
  _atom_site_fract_y
  _atom_site_fract_z
  _atom_site_occupancy
  Li  Li1       1.0  0.8008633297814498  0.042030318336955474  0.010283897698045052  1.0000
  O   O1        1.0  0.5818917208179215  0.6659952099021496  0.30901247474861826  1.0000
  O   O2        1.0  0.6485721227439112  0.4284948502671664  0.14426923521773105  1.0000
  O   O3        1.0  0.2879766035569986  0.8804839233406625  0.3248533255859982  1.0000
  O   O4        1.0  0.21880368315649434  0.43233315177424103  0.506837986643248  1.0000
  O   O5        1.0  0.6181604349517329  0.7731072253137476  0.5598672247560756  1.0000
  O   O6        1.0  0.4155602709106363  0.3766471505275035  0.7834977195266646  1.0000
  O   O7        1.0  0.2882803146993105  0.32476830200058204  0.3775813235137804  1.0000
  O   O8        1.0  0.6746760306580111  0.23408821253166057  0.43544527440053415  1.0000
