data_image0
_chemical_formula_structural       LiO8
_chemical_formula_sum              "Li1 O8"
_cell_length_a       5.249754507535302
_cell_length_b       5.413199314268996
_cell_length_c       5.41221408469246
_cell_angle_alpha    66.06793548132961
_cell_angle_beta     55.04984107024682
_cell_angle_gamma    55.053804050826955

_space_group_name_H-M_alt    "P 1"
_space_group_IT_number       1

loop_
  _space_group_symop_operation_xyz
  'x, y, z'

loop_
  _atom_site_type_symbol
  _atom_site_label
  _atom_site_symmetry_multiplicity
  _atom_site_fract_x
  _atom_site_fract_y
  _atom_site_fract_z
  _atom_site_occupancy
  Li  Li1       1.0  0.15435133794139233  0.5512880226792589  0.08508621014188122  1.0000
  O   O1        1.0  0.9608362052904056  0.32037134450681154  0.014272880180982384  1.0000
  O   O2        1.0  0.9214043065204155  0.6322518670232  0.7536591904709695  1.0000
  O   O3        1.0  0.8562421777628231  0.7002463747143138  0.7572983496725207  1.0000
  O   O4        1.0  0.4256432209133152  0.6402735660226053  0.7570733682499338  1.0000
  O   O5        1.0  0.5617208307349273  0.3423510580045068  0.05811282281061381  1.0000
  O   O6        1.0  0.38069986887485285  0.6309830182745522  0.29211182493428467  1.0000
  O   O7        1.0  0.28275570481704637  0.02189222221732301  0.3747104322216259  1.0000
  O   O8        1.0  0.42888143121705724  0.4176309770220641  0.026630663664320764  1.0000
