data_image0
_chemical_formula_structural       LiO8
_chemical_formula_sum              "Li1 O8"
_cell_length_a       5.249754507535302
_cell_length_b       5.413199314268996
_cell_length_c       5.41221408469246
_cell_angle_alpha    66.06793548132961
_cell_angle_beta     55.04984107024682
_cell_angle_gamma    55.053804050826955

_space_group_name_H-M_alt    "P 1"
_space_group_IT_number       1

loop_
  _space_group_symop_operation_xyz
  'x, y, z'

loop_
  _atom_site_type_symbol
  _atom_site_label
  _atom_site_symmetry_multiplicity
  _atom_site_fract_x
  _atom_site_fract_y
  _atom_site_fract_z
  _atom_site_occupancy
  Li  Li1       1.0  0.39187785424680754  0.9544508930719147  0.9719743574158457  1.0000
  O   O1        1.0  0.749324061020515  0.26255690046932345  0.5928562157763331  1.0000
  O   O2        1.0  0.46536383461127784  0.40058963978802903  0.7741019523399117  1.0000
  O   O3        1.0  0.1167985317495166  0.5803787819651376  0.2017445413289316  1.0000
  O   O4        1.0  0.368141351511845  0.6117865141880188  0.07001465978994759  1.0000
  O   O5        1.0  0.05735322415852884  0.8717398276486392  0.7990749924640443  1.0000
  O   O6        1.0  0.454456105535062  0.5913142727750762  0.43320151538054397  1.0000
  O   O7        1.0  0.004752878772990243  0.01377541698103002  0.968229451364067  1.0000
  O   O8        1.0  0.27636989100070153  0.375922188492531  0.1874006401667927  1.0000
