data_image0
_chemical_formula_structural       LiO8
_chemical_formula_sum              "Li1 O8"
_cell_length_a       5.249754507535302
_cell_length_b       5.413199314268996
_cell_length_c       5.41221408469246
_cell_angle_alpha    66.06793548132961
_cell_angle_beta     55.04984107024682
_cell_angle_gamma    55.053804050826955

_space_group_name_H-M_alt    "P 1"
_space_group_IT_number       1

loop_
  _space_group_symop_operation_xyz
  'x, y, z'

loop_
  _atom_site_type_symbol
  _atom_site_label
  _atom_site_symmetry_multiplicity
  _atom_site_fract_x
  _atom_site_fract_y
  _atom_site_fract_z
  _atom_site_occupancy
  Li  Li1       1.0  0.12336558545809062  0.16624532515325185  0.7250699501563123  1.0000
  O   O1        1.0  0.37734630886109977  0.034319568904958686  0.5331944098334525  1.0000
  O   O2        1.0  0.4122586730708697  0.3361598928381486  0.900293851881429  1.0000
  O   O3        1.0  0.09829257917625256  0.8560103422706149  0.23417769690638934  1.0000
  O   O4        1.0  0.6899200616954957  0.8788553948176201  0.8707599560795174  1.0000
  O   O5        1.0  0.70623777398934  0.5196855017322903  0.7595979096810659  1.0000
  O   O6        1.0  0.3573589255297378  0.7857322808061369  0.7578703537843916  1.0000
  O   O7        1.0  0.5028797512037357  0.6688610666447268  0.26074672417388456  1.0000
  O   O8        1.0  0.9938050306082857  0.6890635485730243  0.896378386694856  1.0000
