data_image0
_chemical_formula_structural       LiO8
_chemical_formula_sum              "Li1 O8"
_cell_length_a       5.249754507535302
_cell_length_b       5.413199314268996
_cell_length_c       5.41221408469246
_cell_angle_alpha    66.06793548132961
_cell_angle_beta     55.04984107024682
_cell_angle_gamma    55.053804050826955

_space_group_name_H-M_alt    "P 1"
_space_group_IT_number       1

loop_
  _space_group_symop_operation_xyz
  'x, y, z'

loop_
  _atom_site_type_symbol
  _atom_site_label
  _atom_site_symmetry_multiplicity
  _atom_site_fract_x
  _atom_site_fract_y
  _atom_site_fract_z
  _atom_site_occupancy
  Li  Li1       1.0  0.9196788580388926  0.9590518263404064  0.6194022757544104  1.0000
  O   O1        1.0  0.2060860102208366  0.7789351554467032  0.08472785878138467  1.0000
  O   O2        1.0  0.887470613204723  0.9540613314023219  0.02311821686921789  1.0000
  O   O3        1.0  0.9230938278098009  0.8970237599687039  0.44993826962880235  1.0000
  O   O4        1.0  0.5663480523946989  0.41801665443840896  0.7224324401183964  1.0000
  O   O5        1.0  0.11861131782797685  0.44901750059717216  0.07190013414033691  1.0000
  O   O6        1.0  0.7101784783229306  0.3101343171956472  0.3621778220019891  1.0000
  O   O7        1.0  0.7286177092030925  0.7154332873939708  0.8403736227735266  1.0000
  O   O8        1.0  0.6494200367290333  0.5561896039733334  0.11842490669728178  1.0000
