data_image0
_chemical_formula_structural       LiO8
_chemical_formula_sum              "Li1 O8"
_cell_length_a       5.249754507535302
_cell_length_b       5.413199314268996
_cell_length_c       5.41221408469246
_cell_angle_alpha    66.06793548132961
_cell_angle_beta     55.04984107024682
_cell_angle_gamma    55.053804050826955

_space_group_name_H-M_alt    "P 1"
_space_group_IT_number       1

loop_
  _space_group_symop_operation_xyz
  'x, y, z'

loop_
  _atom_site_type_symbol
  _atom_site_label
  _atom_site_symmetry_multiplicity
  _atom_site_fract_x
  _atom_site_fract_y
  _atom_site_fract_z
  _atom_site_occupancy
  Li  Li1       1.0  0.4468090643266365  0.4127820541413243  0.515242927126824  1.0000
  O   O1        1.0  0.9230646537349578  0.7030652125271928  0.023290676333850513  1.0000
  O   O2        1.0  0.8553596416634619  0.754161859885242  0.5957722643855519  1.0000
  O   O3        1.0  0.3019440948003904  0.4976852615418963  0.7632350566408235  1.0000
  O   O4        1.0  0.6254678107043457  0.6731811223660031  0.011774471125507446  1.0000
  O   O5        1.0  0.544709745745628  0.40142391141717226  0.12083529749765631  1.0000
  O   O6        1.0  0.27820805501565227  0.9108185292961402  0.2416251021655338  1.0000
  O   O7        1.0  0.10950309274198489  0.4442033368147502  0.41691431155224734  1.0000
  O   O8        1.0  0.6747688195484489  0.18162409259330303  0.22713070839637695  1.0000
