data_image0
_chemical_formula_structural       LiO8
_chemical_formula_sum              "Li1 O8"
_cell_length_a       5.249754507535302
_cell_length_b       5.413199314268996
_cell_length_c       5.41221408469246
_cell_angle_alpha    66.06793548132961
_cell_angle_beta     55.04984107024682
_cell_angle_gamma    55.053804050826955

_space_group_name_H-M_alt    "P 1"
_space_group_IT_number       1

loop_
  _space_group_symop_operation_xyz
  'x, y, z'

loop_
  _atom_site_type_symbol
  _atom_site_label
  _atom_site_symmetry_multiplicity
  _atom_site_fract_x
  _atom_site_fract_y
  _atom_site_fract_z
  _atom_site_occupancy
  Li  Li1       1.0  0.3907540108504861  0.17381789803596348  0.9605347212271624  1.0000
  O   O1        1.0  0.4472851139032059  0.6812408226855471  0.6882778299258234  1.0000
  O   O2        1.0  0.361260123084826  0.7600882680838623  0.0025432706953054662  1.0000
  O   O3        1.0  0.8469351878049736  0.6998414319994966  0.8862594422974901  1.0000
  O   O4        1.0  0.46148224855392783  0.38215735030043874  0.713221343568776  1.0000
  O   O5        1.0  0.49038871882250135  0.12149258653742878  0.03835458484959986  1.0000
  O   O6        1.0  0.5767990617209238  0.6141661555841864  0.5358780329616124  1.0000
  O   O7        1.0  0.14165952474702648  0.027680528605879218  0.561041611258581  1.0000
  O   O8        1.0  0.22110529297409443  0.594878811373313  0.7264919783966768  1.0000
