data_image0
_chemical_formula_structural       LiO8
_chemical_formula_sum              "Li1 O8"
_cell_length_a       5.249754507535302
_cell_length_b       5.413199314268996
_cell_length_c       5.41221408469246
_cell_angle_alpha    66.06793548132961
_cell_angle_beta     55.04984107024682
_cell_angle_gamma    55.053804050826955

_space_group_name_H-M_alt    "P 1"
_space_group_IT_number       1

loop_
  _space_group_symop_operation_xyz
  'x, y, z'

loop_
  _atom_site_type_symbol
  _atom_site_label
  _atom_site_symmetry_multiplicity
  _atom_site_fract_x
  _atom_site_fract_y
  _atom_site_fract_z
  _atom_site_occupancy
  Li  Li1       1.0  0.24327005965736248  0.8077952653833336  0.0455656923778065  1.0000
  O   O1        1.0  0.31129126102904436  0.20668626262515843  0.9095437636400305  1.0000
  O   O2        1.0  0.3034881983523654  0.49350973813960763  0.4949344566056908  1.0000
  O   O3        1.0  0.04818257519400504  0.9944894974041816  0.6526320871205478  1.0000
  O   O4        1.0  0.46241754919538636  0.6283364309473785  0.18944842621039015  1.0000
  O   O5        1.0  0.38075381543561093  0.793136243390336  0.03140814621106358  1.0000
  O   O6        1.0  0.9815748672329896  0.27980118781543695  0.9208146467649314  1.0000
  O   O7        1.0  0.18869783116026984  0.3207955509790583  0.9856451807610433  1.0000
  O   O8        1.0  0.44670410851745856  0.731375900826805  0.21189115548719073  1.0000
