data_image0
_chemical_formula_structural       LiO8
_chemical_formula_sum              "Li1 O8"
_cell_length_a       5.249754507535302
_cell_length_b       5.413199314268996
_cell_length_c       5.41221408469246
_cell_angle_alpha    66.06793548132961
_cell_angle_beta     55.04984107024682
_cell_angle_gamma    55.053804050826955

_space_group_name_H-M_alt    "P 1"
_space_group_IT_number       1

loop_
  _space_group_symop_operation_xyz
  'x, y, z'

loop_
  _atom_site_type_symbol
  _atom_site_label
  _atom_site_symmetry_multiplicity
  _atom_site_fract_x
  _atom_site_fract_y
  _atom_site_fract_z
  _atom_site_occupancy
  Li  Li1       1.0  0.3121161898669129  0.8232422007508262  0.5029708353198146  1.0000
  O   O1        1.0  0.28460373634042924  0.648247235943515  0.5172097155755684  1.0000
  O   O2        1.0  0.1677362254961441  0.6751020290193566  0.4851878805325285  1.0000
  O   O3        1.0  0.5894046433433715  0.2211007135447005  0.24890482592711294  1.0000
  O   O4        1.0  0.7192184694738248  0.8003751934626031  0.8365565269772688  1.0000
  O   O5        1.0  0.03138367004160614  0.008863167645557724  0.20924170341571724  1.0000
  O   O6        1.0  0.08049281250458673  0.10896668747857419  0.4324071507621481  1.0000
  O   O7        1.0  0.09515214318965803  0.38160754310199874  0.6681349205051959  1.0000
  O   O8        1.0  0.9068206256046998  0.06776520417634657  0.017084428844288624  1.0000
