data_image0
_chemical_formula_structural       LiO8
_chemical_formula_sum              "Li1 O8"
_cell_length_a       5.249754507535302
_cell_length_b       5.413199314268996
_cell_length_c       5.41221408469246
_cell_angle_alpha    66.06793548132961
_cell_angle_beta     55.04984107024682
_cell_angle_gamma    55.053804050826955

_space_group_name_H-M_alt    "P 1"
_space_group_IT_number       1

loop_
  _space_group_symop_operation_xyz
  'x, y, z'

loop_
  _atom_site_type_symbol
  _atom_site_label
  _atom_site_symmetry_multiplicity
  _atom_site_fract_x
  _atom_site_fract_y
  _atom_site_fract_z
  _atom_site_occupancy
  Li  Li1       1.0  0.1241623935450491  0.061940988549750386  0.9131101534064783  1.0000
  O   O1        1.0  0.989604178842086  0.1747728690156949  0.22318378957032792  1.0000
  O   O2        1.0  0.970656091006786  0.4520384070302015  0.26910086496242513  1.0000
  O   O3        1.0  0.7343852588119191  0.2001003008525282  0.2885499374285452  1.0000
  O   O4        1.0  0.5357304245112715  0.9899016867232975  0.7326352536578611  1.0000
  O   O5        1.0  0.8295749553298606  0.8054900372708182  0.13641207105585806  1.0000
  O   O6        1.0  0.9849830236485548  0.3894267370367537  0.20010763709276702  1.0000
  O   O7        1.0  0.7319450830194151  0.3308859004108644  0.9776688746659623  1.0000
  O   O8        1.0  0.928695801613209  0.12789922101557494  0.6937741027336308  1.0000
