data_image0
_chemical_formula_structural       LiO8
_chemical_formula_sum              "Li1 O8"
_cell_length_a       5.249754507535302
_cell_length_b       5.413199314268996
_cell_length_c       5.41221408469246
_cell_angle_alpha    66.06793548132961
_cell_angle_beta     55.04984107024682
_cell_angle_gamma    55.053804050826955

_space_group_name_H-M_alt    "P 1"
_space_group_IT_number       1

loop_
  _space_group_symop_operation_xyz
  'x, y, z'

loop_
  _atom_site_type_symbol
  _atom_site_label
  _atom_site_symmetry_multiplicity
  _atom_site_fract_x
  _atom_site_fract_y
  _atom_site_fract_z
  _atom_site_occupancy
  Li  Li1       1.0  0.2666252042441286  0.1843061140031459  0.9295712077834981  1.0000
  O   O1        1.0  0.8445826913969228  0.7557315896814631  0.09308124053827527  1.0000
  O   O2        1.0  0.7765224691301214  0.9974767512002387  0.021676512562162742  1.0000
  O   O3        1.0  0.18942208821492557  0.3107100395982201  0.7246586901112799  1.0000
  O   O4        1.0  0.527693887675361  0.15088422248367905  0.3458930295813678  1.0000
  O   O5        1.0  0.34196813576044605  0.6517967554657318  0.14684022023232401  1.0000
  O   O6        1.0  0.2543643160481974  0.39461340851431714  0.02958718879534228  1.0000
  O   O7        1.0  0.5426798554943488  0.19850146965252513  0.524996295014347  1.0000
  O   O8        1.0  0.34339963324779355  0.7587214298225486  0.340626901538883  1.0000
