data_image0
_chemical_formula_structural       LiO8
_chemical_formula_sum              "Li1 O8"
_cell_length_a       5.249754507535302
_cell_length_b       5.413199314268996
_cell_length_c       5.41221408469246
_cell_angle_alpha    66.06793548132961
_cell_angle_beta     55.04984107024682
_cell_angle_gamma    55.053804050826955

_space_group_name_H-M_alt    "P 1"
_space_group_IT_number       1

loop_
  _space_group_symop_operation_xyz
  'x, y, z'

loop_
  _atom_site_type_symbol
  _atom_site_label
  _atom_site_symmetry_multiplicity
  _atom_site_fract_x
  _atom_site_fract_y
  _atom_site_fract_z
  _atom_site_occupancy
  Li  Li1       1.0  0.5163286512508307  0.5135849232372607  0.6867996781059986  1.0000
  O   O1        1.0  0.576796440010817  0.7718107815797737  0.26398289165486233  1.0000
  O   O2        1.0  0.8780453975354945  0.798646632894993  0.403453818059063  1.0000
  O   O3        1.0  0.599669525330917  0.5767294654812654  0.2857252124914673  1.0000
  O   O4        1.0  0.5491042468262037  0.022912880964348403  0.8638921323256028  1.0000
  O   O5        1.0  0.08086343590792922  0.731663452509844  0.2764754313722477  1.0000
  O   O6        1.0  0.1403791154792604  0.5267858909199177  0.8674865915417627  1.0000
  O   O7        1.0  0.8358155122650195  0.4844055028127894  0.9653711138615542  1.0000
  O   O8        1.0  0.9104350444357365  0.3332699602722897  0.5919330211932046  1.0000
