data_image0
_chemical_formula_structural       LiO8
_chemical_formula_sum              "Li1 O8"
_cell_length_a       5.249754507535302
_cell_length_b       5.413199314268996
_cell_length_c       5.41221408469246
_cell_angle_alpha    66.06793548132961
_cell_angle_beta     55.04984107024682
_cell_angle_gamma    55.053804050826955

_space_group_name_H-M_alt    "P 1"
_space_group_IT_number       1

loop_
  _space_group_symop_operation_xyz
  'x, y, z'

loop_
  _atom_site_type_symbol
  _atom_site_label
  _atom_site_symmetry_multiplicity
  _atom_site_fract_x
  _atom_site_fract_y
  _atom_site_fract_z
  _atom_site_occupancy
  Li  Li1       1.0  0.6968270965788292  0.12917866692555435  0.5925327872585697  1.0000
  O   O1        1.0  0.7234229962115073  0.2749665749464718  0.6551925027642014  1.0000
  O   O2        1.0  0.4672194653591575  0.6787399867265833  0.5281375027432205  1.0000
  O   O3        1.0  0.7280649240052313  0.7349591782413896  0.83427109584769  1.0000
  O   O4        1.0  0.2644315675294351  0.4236841042534669  0.813867727688887  1.0000
  O   O5        1.0  0.3027431606073918  0.20391644884381321  0.391961261121871  1.0000
  O   O6        1.0  0.81966593595447  0.7959247160550404  0.734231397007882  1.0000
  O   O7        1.0  0.6387829261836275  0.8998564843655017  0.6289842692457199  1.0000
  O   O8        1.0  0.07244863186759432  0.7086058105758539  0.2666163644779007  1.0000
