data_image0
_chemical_formula_structural       LiO8
_chemical_formula_sum              "Li1 O8"
_cell_length_a       5.249754507535302
_cell_length_b       5.413199314268996
_cell_length_c       5.41221408469246
_cell_angle_alpha    66.06793548132961
_cell_angle_beta     55.04984107024682
_cell_angle_gamma    55.053804050826955

_space_group_name_H-M_alt    "P 1"
_space_group_IT_number       1

loop_
  _space_group_symop_operation_xyz
  'x, y, z'

loop_
  _atom_site_type_symbol
  _atom_site_label
  _atom_site_symmetry_multiplicity
  _atom_site_fract_x
  _atom_site_fract_y
  _atom_site_fract_z
  _atom_site_occupancy
  Li  Li1       1.0  0.6087956567085371  0.8992247004595839  0.17013711170599777  1.0000
  O   O1        1.0  0.8598660430696583  0.6374045298520912  0.16170957249614393  1.0000
  O   O2        1.0  0.4404613962827364  0.7156148341639295  0.878912306894648  1.0000
  O   O3        1.0  0.16286480063570252  0.9270698657057608  0.07734664642337918  1.0000
  O   O4        1.0  0.7867032073804996  0.2863498947538403  0.13669588954476808  1.0000
  O   O5        1.0  0.8329004191702438  0.10299878376685001  0.49358510064099903  1.0000
  O   O6        1.0  0.8948056302481322  0.9253199829617849  0.21157605994806694  1.0000
  O   O7        1.0  0.20866747677110453  0.6652930065015852  0.11829427305748652  1.0000
  O   O8        1.0  0.008077176013207676  0.9402346682131558  0.9967093631533812  1.0000
