data_image0
_chemical_formula_structural       LiO8
_chemical_formula_sum              "Li1 O8"
_cell_length_a       5.249754507535302
_cell_length_b       5.413199314268996
_cell_length_c       5.41221408469246
_cell_angle_alpha    66.06793548132961
_cell_angle_beta     55.04984107024682
_cell_angle_gamma    55.053804050826955

_space_group_name_H-M_alt    "P 1"
_space_group_IT_number       1

loop_
  _space_group_symop_operation_xyz
  'x, y, z'

loop_
  _atom_site_type_symbol
  _atom_site_label
  _atom_site_symmetry_multiplicity
  _atom_site_fract_x
  _atom_site_fract_y
  _atom_site_fract_z
  _atom_site_occupancy
  Li  Li1       1.0  0.9984885348791588  0.30879893959900073  0.1350655751778489  1.0000
  O   O1        1.0  0.5403936178132724  0.2869054659540211  0.7527284586293752  1.0000
  O   O2        1.0  0.3035163575966422  0.5674250649139232  0.3192160226634577  1.0000
  O   O3        1.0  0.5680043214446684  0.019796251684049082  0.8687908012595933  1.0000
  O   O4        1.0  0.10788594221756043  0.8979606614000559  0.6754289622667073  1.0000
  O   O5        1.0  0.054713950160234504  0.7317849039240159  0.02658773383608093  1.0000
  O   O6        1.0  0.5714038764369231  0.23398739432890991  0.9107403836717118  1.0000
  O   O7        1.0  0.8829564368512202  0.7371275659288621  0.043297912106604386  1.0000
  O   O8        1.0  0.8248105994218733  0.30290721151553157  0.382812558722323  1.0000
