data_image0
_chemical_formula_structural       LiO8
_chemical_formula_sum              "Li1 O8"
_cell_length_a       5.249754507535302
_cell_length_b       5.413199314268996
_cell_length_c       5.41221408469246
_cell_angle_alpha    66.06793548132961
_cell_angle_beta     55.04984107024682
_cell_angle_gamma    55.053804050826955

_space_group_name_H-M_alt    "P 1"
_space_group_IT_number       1

loop_
  _space_group_symop_operation_xyz
  'x, y, z'

loop_
  _atom_site_type_symbol
  _atom_site_label
  _atom_site_symmetry_multiplicity
  _atom_site_fract_x
  _atom_site_fract_y
  _atom_site_fract_z
  _atom_site_occupancy
  Li  Li1       1.0  0.6702483042306966  0.6261207206699488  0.7358327434556671  1.0000
  O   O1        1.0  0.9922128112468727  0.6352490296844593  0.6658643863964819  1.0000
  O   O2        1.0  0.3682470322508662  0.26375280731464734  0.12778847760120726  1.0000
  O   O3        1.0  0.9058065467995178  0.40132196030234013  0.29384459863444334  1.0000
  O   O4        1.0  0.7744548116290897  0.9039331949374745  0.5097413573266039  1.0000
  O   O5        1.0  0.9588976235558704  0.846700369221594  0.7253260333483347  1.0000
  O   O6        1.0  0.29665184056731064  0.42997017062447185  0.7743643122398964  1.0000
  O   O7        1.0  0.43576508511779366  0.9328210163638051  0.47315745898581696  1.0000
  O   O8        1.0  0.3723990661424219  0.8374773799489175  0.1434583914708938  1.0000
