data_image0
_chemical_formula_structural       LiO8
_chemical_formula_sum              "Li1 O8"
_cell_length_a       5.249754507535302
_cell_length_b       5.413199314268996
_cell_length_c       5.41221408469246
_cell_angle_alpha    66.06793548132961
_cell_angle_beta     55.04984107024682
_cell_angle_gamma    55.053804050826955

_space_group_name_H-M_alt    "P 1"
_space_group_IT_number       1

loop_
  _space_group_symop_operation_xyz
  'x, y, z'

loop_
  _atom_site_type_symbol
  _atom_site_label
  _atom_site_symmetry_multiplicity
  _atom_site_fract_x
  _atom_site_fract_y
  _atom_site_fract_z
  _atom_site_occupancy
  Li  Li1       1.0  0.4829422522314317  0.8323125662345507  0.16651469884241266  1.0000
  O   O1        1.0  0.3438891948248406  0.48484021511363373  0.4842170729125925  1.0000
  O   O2        1.0  0.06433126912066456  0.5387314995128563  0.2908731293691602  1.0000
  O   O3        1.0  0.14270623378842373  0.5469631515834266  0.15878541140425284  1.0000
  O   O4        1.0  0.5314182138858285  0.3889650217917069  0.6916404203518933  1.0000
  O   O5        1.0  0.719418901165545  0.30482335677181993  0.4700169349907952  1.0000
  O   O6        1.0  0.056385061641584855  0.31226888204597014  0.8680457175161855  1.0000
  O   O7        1.0  0.1620190928682348  0.9344230957559425  0.24996350447672455  1.0000
  O   O8        1.0  0.34887386627462824  0.43210035914427536  0.7091060318053888  1.0000
