data_image0
_chemical_formula_structural       LiO8
_chemical_formula_sum              "Li1 O8"
_cell_length_a       5.249754507535302
_cell_length_b       5.413199314268996
_cell_length_c       5.41221408469246
_cell_angle_alpha    66.06793548132961
_cell_angle_beta     55.04984107024682
_cell_angle_gamma    55.053804050826955

_space_group_name_H-M_alt    "P 1"
_space_group_IT_number       1

loop_
  _space_group_symop_operation_xyz
  'x, y, z'

loop_
  _atom_site_type_symbol
  _atom_site_label
  _atom_site_symmetry_multiplicity
  _atom_site_fract_x
  _atom_site_fract_y
  _atom_site_fract_z
  _atom_site_occupancy
  Li  Li1       1.0  0.6171916864133209  0.8293323889195854  0.7239060816283036  1.0000
  O   O1        1.0  0.22455837426732472  0.4814097780187936  0.1863547902722491  1.0000
  O   O2        1.0  0.32434987817034777  0.517475893478851  0.48791332889497596  1.0000
  O   O3        1.0  0.9603537307871051  0.9765367544575412  0.31490018964210265  1.0000
  O   O4        1.0  0.9347662869502411  0.9710582471086635  0.5410625554712425  1.0000
  O   O5        1.0  0.12390671838396372  0.2296344002696955  0.500199186469434  1.0000
  O   O6        1.0  0.5370514605030953  0.9663337999864119  0.4449659351240136  1.0000
  O   O7        1.0  0.4659759820315017  0.39918238660472194  0.007999999582914086  1.0000
  O   O8        1.0  0.29581519568055814  0.5955577304346242  0.8428756171312755  1.0000
