data_image0
_chemical_formula_structural       LiO8
_chemical_formula_sum              "Li1 O8"
_cell_length_a       5.249754507535302
_cell_length_b       5.413199314268996
_cell_length_c       5.41221408469246
_cell_angle_alpha    66.06793548132961
_cell_angle_beta     55.04984107024682
_cell_angle_gamma    55.053804050826955

_space_group_name_H-M_alt    "P 1"
_space_group_IT_number       1

loop_
  _space_group_symop_operation_xyz
  'x, y, z'

loop_
  _atom_site_type_symbol
  _atom_site_label
  _atom_site_symmetry_multiplicity
  _atom_site_fract_x
  _atom_site_fract_y
  _atom_site_fract_z
  _atom_site_occupancy
  Li  Li1       1.0  0.8716133188206996  0.3242694237711028  0.06757617202837592  1.0000
  O   O1        1.0  0.18555352385649737  0.3166409509915926  0.8047488988061957  1.0000
  O   O2        1.0  0.23062825386059416  0.05317109452274327  0.10091471757636938  1.0000
  O   O3        1.0  0.20946279829135506  0.43588821077120343  0.4737785856239398  1.0000
  O   O4        1.0  0.5701290612719436  0.8981053054704957  0.6907621268782176  1.0000
  O   O5        1.0  0.5363576294816603  0.7773414947016217  0.16363639720229273  1.0000
  O   O6        1.0  0.8687297788799606  0.3406111877613469  0.2910657605783227  1.0000
  O   O7        1.0  0.8088406148201663  0.2616337295156139  0.5458767893145264  1.0000
  O   O8        1.0  0.035156007822727986  0.7381827766763607  0.3364475622670682  1.0000
