data_image0
_chemical_formula_structural       LiO8
_chemical_formula_sum              "Li1 O8"
_cell_length_a       5.249754507535302
_cell_length_b       5.413199314268996
_cell_length_c       5.41221408469246
_cell_angle_alpha    66.06793548132961
_cell_angle_beta     55.04984107024682
_cell_angle_gamma    55.053804050826955

_space_group_name_H-M_alt    "P 1"
_space_group_IT_number       1

loop_
  _space_group_symop_operation_xyz
  'x, y, z'

loop_
  _atom_site_type_symbol
  _atom_site_label
  _atom_site_symmetry_multiplicity
  _atom_site_fract_x
  _atom_site_fract_y
  _atom_site_fract_z
  _atom_site_occupancy
  Li  Li1       1.0  0.35036645116622367  0.38052469775693964  0.15956290840010467  1.0000
  O   O1        1.0  0.08587795004841325  0.879082617756648  0.041845265949760346  1.0000
  O   O2        1.0  0.16914338599993428  0.33803546263337125  0.9568278288048191  1.0000
  O   O3        1.0  0.5265877064502149  0.8518072187797863  0.6013895848382909  1.0000
  O   O4        1.0  0.06307899321146238  0.6880074474151197  0.7014503367444718  1.0000
  O   O5        1.0  0.3986874324447882  0.1657261258372822  0.2818152346346494  1.0000
  O   O6        1.0  0.7013039127478686  0.8943620877218876  0.22370837974757762  1.0000
  O   O7        1.0  0.2849886042403216  0.7865162500400107  0.6121844567937913  1.0000
  O   O8        1.0  0.4545643586341299  0.9770845349991149  0.16374332251122503  1.0000
