data_image0
_chemical_formula_structural       LiO8
_chemical_formula_sum              "Li1 O8"
_cell_length_a       5.249754507535302
_cell_length_b       5.413199314268996
_cell_length_c       5.41221408469246
_cell_angle_alpha    66.06793548132961
_cell_angle_beta     55.04984107024682
_cell_angle_gamma    55.053804050826955

_space_group_name_H-M_alt    "P 1"
_space_group_IT_number       1

loop_
  _space_group_symop_operation_xyz
  'x, y, z'

loop_
  _atom_site_type_symbol
  _atom_site_label
  _atom_site_symmetry_multiplicity
  _atom_site_fract_x
  _atom_site_fract_y
  _atom_site_fract_z
  _atom_site_occupancy
  Li  Li1       1.0  0.42179030986758903  0.5739501087690115  0.23286678187061227  1.0000
  O   O1        1.0  0.8863887512525039  0.6243844220883918  0.8109887624004841  1.0000
  O   O2        1.0  0.7295323180853686  0.7200099791059529  0.233518349974716  1.0000
  O   O3        1.0  0.051475581720815455  0.7476439075333463  0.5628492151905782  1.0000
  O   O4        1.0  0.7732612977248152  0.12538504458531907  0.5850631825633172  1.0000
  O   O5        1.0  0.36188589498641477  0.7144207557886375  0.10313669870889441  1.0000
  O   O6        1.0  0.7704450878377589  0.16033571051959683  0.3884277986772915  1.0000
  O   O7        1.0  0.7132918015847363  0.8739586138930697  0.4044561282115602  1.0000
  O   O8        1.0  0.27040894123068426  0.2729503158486608  0.775592473212674  1.0000
