data_image0
_chemical_formula_structural       LiO8
_chemical_formula_sum              "Li1 O8"
_cell_length_a       5.249754507535302
_cell_length_b       5.413199314268996
_cell_length_c       5.41221408469246
_cell_angle_alpha    66.06793548132961
_cell_angle_beta     55.04984107024682
_cell_angle_gamma    55.053804050826955

_space_group_name_H-M_alt    "P 1"
_space_group_IT_number       1

loop_
  _space_group_symop_operation_xyz
  'x, y, z'

loop_
  _atom_site_type_symbol
  _atom_site_label
  _atom_site_symmetry_multiplicity
  _atom_site_fract_x
  _atom_site_fract_y
  _atom_site_fract_z
  _atom_site_occupancy
  Li  Li1       1.0  0.46476109620417105  0.5248514861592781  0.013035771573889576  1.0000
  O   O1        1.0  0.10442163214805333  0.648140338998779  0.9962912871683942  1.0000
  O   O2        1.0  0.903032853323645  0.8148557910278011  0.045071086089429  1.0000
  O   O3        1.0  0.887223888161131  0.36156143689736453  0.04299543275968176  1.0000
  O   O4        1.0  0.8434289747094468  0.6547080247530239  0.18457586004659277  1.0000
  O   O5        1.0  0.34315434737092687  0.41849018567663876  0.847499207900114  1.0000
  O   O6        1.0  0.7313900042121827  0.1476884340447313  0.7530454988627042  1.0000
  O   O7        1.0  0.9485171207961436  0.6618835385476736  0.9932632106303423  1.0000
  O   O8        1.0  0.06804762789465713  0.6365875952597416  0.795367685214303  1.0000
