data_image0
_chemical_formula_structural       LiO8
_chemical_formula_sum              "Li1 O8"
_cell_length_a       5.249754507535302
_cell_length_b       5.413199314268996
_cell_length_c       5.41221408469246
_cell_angle_alpha    66.06793548132961
_cell_angle_beta     55.04984107024682
_cell_angle_gamma    55.053804050826955

_space_group_name_H-M_alt    "P 1"
_space_group_IT_number       1

loop_
  _space_group_symop_operation_xyz
  'x, y, z'

loop_
  _atom_site_type_symbol
  _atom_site_label
  _atom_site_symmetry_multiplicity
  _atom_site_fract_x
  _atom_site_fract_y
  _atom_site_fract_z
  _atom_site_occupancy
  Li  Li1       1.0  0.18113902087910105  0.6621661260345917  0.1710085732886455  1.0000
  O   O1        1.0  0.8433050197373788  0.7804630557100793  0.9122087579366109  1.0000
  O   O2        1.0  0.8965397070619625  0.4298421298785797  0.18117023968999035  1.0000
  O   O3        1.0  0.7754840740531961  0.8894758934596891  0.8017041377316225  1.0000
  O   O4        1.0  0.5459017654292069  0.798145459953497  0.6270460606390316  1.0000
  O   O5        1.0  0.734587709450139  0.45580016622670694  0.7467637858087954  1.0000
  O   O6        1.0  0.45814060625006886  0.36900135839666603  0.15200523756443118  1.0000
  O   O7        1.0  0.7661295931509544  0.22777838182606658  0.5301032603883016  1.0000
  O   O8        1.0  0.7227239453724508  0.9029018852453277  0.11884103786863776  1.0000
