data_image0
_chemical_formula_structural       LiO8
_chemical_formula_sum              "Li1 O8"
_cell_length_a       5.249754507535302
_cell_length_b       5.413199314268996
_cell_length_c       5.41221408469246
_cell_angle_alpha    66.06793548132961
_cell_angle_beta     55.04984107024682
_cell_angle_gamma    55.053804050826955

_space_group_name_H-M_alt    "P 1"
_space_group_IT_number       1

loop_
  _space_group_symop_operation_xyz
  'x, y, z'

loop_
  _atom_site_type_symbol
  _atom_site_label
  _atom_site_symmetry_multiplicity
  _atom_site_fract_x
  _atom_site_fract_y
  _atom_site_fract_z
  _atom_site_occupancy
  Li  Li1       1.0  0.052324729729555486  0.9741947545205853  0.2981129297339056  1.0000
  O   O1        1.0  0.9555436262527941  0.7703454332462432  0.8140464772106544  1.0000
  O   O2        1.0  0.5931880083467931  0.10243357972527622  0.7126819921213823  1.0000
  O   O3        1.0  0.03376970100570276  0.433352997785299  0.7153042456339676  1.0000
  O   O4        1.0  0.7747603788025863  0.9909605575523628  0.00892309712637207  1.0000
  O   O5        1.0  0.44442333991385397  0.553942844103184  0.47384700864568785  1.0000
  O   O6        1.0  0.2052993167680932  0.7369269865743497  0.29457032675532524  1.0000
  O   O7        1.0  0.5198918115322435  0.4621038800413011  0.8559331077847183  1.0000
  O   O8        1.0  0.9377489420373735  0.9019208478471086  0.6906584218739091  1.0000
