data_image0
_chemical_formula_structural       LiO8
_chemical_formula_sum              "Li1 O8"
_cell_length_a       5.249754507535302
_cell_length_b       5.413199314268996
_cell_length_c       5.41221408469246
_cell_angle_alpha    66.06793548132961
_cell_angle_beta     55.04984107024682
_cell_angle_gamma    55.053804050826955

_space_group_name_H-M_alt    "P 1"
_space_group_IT_number       1

loop_
  _space_group_symop_operation_xyz
  'x, y, z'

loop_
  _atom_site_type_symbol
  _atom_site_label
  _atom_site_symmetry_multiplicity
  _atom_site_fract_x
  _atom_site_fract_y
  _atom_site_fract_z
  _atom_site_occupancy
  Li  Li1       1.0  0.8291209763330087  0.9438554897107139  0.21486466104478907  1.0000
  O   O1        1.0  0.38291445060557194  0.13667175380085084  0.30536542748147966  1.0000
  O   O2        1.0  0.2613027300108257  0.744762559067345  0.06809226753806641  1.0000
  O   O3        1.0  0.9541889530917587  0.9621241338252915  0.9213312714055437  1.0000
  O   O4        1.0  0.5363006520889613  0.11186148523660755  0.6557840085794631  1.0000
  O   O5        1.0  0.33565026287927413  0.5088345940656005  0.543174488879373  1.0000
  O   O6        1.0  0.4519992158808961  0.9909631235270755  0.7975744788689898  1.0000
  O   O7        1.0  0.9290658966703234  0.2843926023482197  0.03559330727119914  1.0000
  O   O8        1.0  0.6814151337615098  0.41730143634624817  0.16210895576943152  1.0000
