data_image0
_chemical_formula_structural       LiO8
_chemical_formula_sum              "Li1 O8"
_cell_length_a       5.249754507535302
_cell_length_b       5.413199314268996
_cell_length_c       5.41221408469246
_cell_angle_alpha    66.06793548132961
_cell_angle_beta     55.04984107024682
_cell_angle_gamma    55.053804050826955

_space_group_name_H-M_alt    "P 1"
_space_group_IT_number       1

loop_
  _space_group_symop_operation_xyz
  'x, y, z'

loop_
  _atom_site_type_symbol
  _atom_site_label
  _atom_site_symmetry_multiplicity
  _atom_site_fract_x
  _atom_site_fract_y
  _atom_site_fract_z
  _atom_site_occupancy
  Li  Li1       1.0  0.3749057470565731  0.9109719725379506  0.2713336471921366  1.0000
  O   O1        1.0  0.18761274928793625  0.22212029217695495  0.27027571032216713  1.0000
  O   O2        1.0  0.6820760583446404  0.45370687099548945  0.18582697236525547  1.0000
  O   O3        1.0  0.7110202208806697  0.9555378906509366  0.5857862326683225  1.0000
  O   O4        1.0  0.8386723798350317  0.2117516147106322  0.8146531156808123  1.0000
  O   O5        1.0  0.010757879271679371  0.3494460377390318  0.8619675616107969  1.0000
  O   O6        1.0  0.6136152013700542  0.05829770414035629  0.9284649153495543  1.0000
  O   O7        1.0  0.16341397852543071  0.6625753993487109  0.8544267316416345  1.0000
  O   O8        1.0  0.23137636370546488  0.5905113927375112  0.5719197345234477  1.0000
