data_image0
_chemical_formula_structural       LiO8
_chemical_formula_sum              "Li1 O8"
_cell_length_a       5.249754507535302
_cell_length_b       5.413199314268996
_cell_length_c       5.41221408469246
_cell_angle_alpha    66.06793548132961
_cell_angle_beta     55.04984107024682
_cell_angle_gamma    55.053804050826955

_space_group_name_H-M_alt    "P 1"
_space_group_IT_number       1

loop_
  _space_group_symop_operation_xyz
  'x, y, z'

loop_
  _atom_site_type_symbol
  _atom_site_label
  _atom_site_symmetry_multiplicity
  _atom_site_fract_x
  _atom_site_fract_y
  _atom_site_fract_z
  _atom_site_occupancy
  Li  Li1       1.0  0.07255251751129776  0.8565133816413635  0.970744405394413  1.0000
  O   O1        1.0  0.313051646473653  0.3080124837186209  0.7188661527922022  1.0000
  O   O2        1.0  0.927604831459875  0.0720517408112471  0.5210819237194215  1.0000
  O   O3        1.0  0.19327840164734766  0.9474371862928658  0.36858611000232244  1.0000
  O   O4        1.0  0.39935694679486744  0.1878415627802088  0.403531977014012  1.0000
  O   O5        1.0  0.24877525036923487  0.18876031448476738  0.4930080955934528  1.0000
  O   O6        1.0  0.25235827424797286  0.6984645722607183  0.9407143365772548  1.0000
  O   O7        1.0  0.7774454210108219  0.5495613713168446  0.04532298703594151  1.0000
  O   O8        1.0  0.7271737506577054  0.06293218430145942  0.1530369287840827  1.0000
