data_image0
_chemical_formula_structural       LiO8
_chemical_formula_sum              "Li1 O8"
_cell_length_a       5.249754507535302
_cell_length_b       5.413199314268996
_cell_length_c       5.41221408469246
_cell_angle_alpha    66.06793548132961
_cell_angle_beta     55.04984107024682
_cell_angle_gamma    55.053804050826955

_space_group_name_H-M_alt    "P 1"
_space_group_IT_number       1

loop_
  _space_group_symop_operation_xyz
  'x, y, z'

loop_
  _atom_site_type_symbol
  _atom_site_label
  _atom_site_symmetry_multiplicity
  _atom_site_fract_x
  _atom_site_fract_y
  _atom_site_fract_z
  _atom_site_occupancy
  Li  Li1       1.0  0.2681642859827491  0.0885448821402548  0.9095188444697015  1.0000
  O   O1        1.0  0.472201184400177  0.09443650459535036  0.3851180540100678  1.0000
  O   O2        1.0  0.36728835921732284  0.966121705897212  0.12868375442169366  1.0000
  O   O3        1.0  0.9167325942157305  0.25563857259002987  0.8035795976267366  1.0000
  O   O4        1.0  0.4525579493178711  0.05341765335268889  0.33507480374510124  1.0000
  O   O5        1.0  0.6530877833986608  0.2736747485855737  0.43491344950733435  1.0000
  O   O6        1.0  0.3278372056510479  0.8128433383214926  0.23014427621039601  1.0000
  O   O7        1.0  0.9312412045803242  0.22508793901693291  0.03314831809141339  1.0000
  O   O8        1.0  0.35723083654290644  0.6340130676214626  0.296592226839025  1.0000
