data_image0
_chemical_formula_structural       LiO8
_chemical_formula_sum              "Li1 O8"
_cell_length_a       5.249754507535302
_cell_length_b       5.413199314268996
_cell_length_c       5.41221408469246
_cell_angle_alpha    66.06793548132961
_cell_angle_beta     55.04984107024682
_cell_angle_gamma    55.053804050826955

_space_group_name_H-M_alt    "P 1"
_space_group_IT_number       1

loop_
  _space_group_symop_operation_xyz
  'x, y, z'

loop_
  _atom_site_type_symbol
  _atom_site_label
  _atom_site_symmetry_multiplicity
  _atom_site_fract_x
  _atom_site_fract_y
  _atom_site_fract_z
  _atom_site_occupancy
  Li  Li1       1.0  0.9469767811277165  0.20938722347909788  0.16031372549328893  1.0000
  O   O1        1.0  0.925201923352347  0.8278066614878234  0.9309788736862217  1.0000
  O   O2        1.0  0.44223761202904655  0.8343788412300412  0.7577405318165376  1.0000
  O   O3        1.0  0.6087154721582664  0.9151193778130882  0.5575688057240455  1.0000
  O   O4        1.0  0.2699156405631129  0.009379219195657394  0.9634482739537589  1.0000
  O   O5        1.0  0.8082516025587836  0.8288661816377108  0.9268692161908234  1.0000
  O   O6        1.0  0.5579461714205927  0.2880437151212334  0.7523032693159948  1.0000
  O   O7        1.0  0.28139011632848554  0.12345015378710755  0.10309673465363112  1.0000
  O   O8        1.0  0.3042523725246795  0.42190298621948585  0.6373078117171751  1.0000
