data_image0
_chemical_formula_structural       LiO8
_chemical_formula_sum              "Li1 O8"
_cell_length_a       5.249754507535302
_cell_length_b       5.413199314268996
_cell_length_c       5.41221408469246
_cell_angle_alpha    66.06793548132961
_cell_angle_beta     55.04984107024682
_cell_angle_gamma    55.053804050826955

_space_group_name_H-M_alt    "P 1"
_space_group_IT_number       1

loop_
  _space_group_symop_operation_xyz
  'x, y, z'

loop_
  _atom_site_type_symbol
  _atom_site_label
  _atom_site_symmetry_multiplicity
  _atom_site_fract_x
  _atom_site_fract_y
  _atom_site_fract_z
  _atom_site_occupancy
  Li  Li1       1.0  0.4596586130543585  0.2031928220507524  0.5781874243722882  1.0000
  O   O1        1.0  0.19605699397455822  0.3849123366359315  0.33291326036493274  1.0000
  O   O2        1.0  0.28050502108628095  0.4394223235468786  0.0569897610415353  1.0000
  O   O3        1.0  0.26567096969679227  0.13542990759738335  0.6441795901147671  1.0000
  O   O4        1.0  0.09313028970852599  0.05991302030919066  0.26836746751556007  1.0000
  O   O5        1.0  0.8448648237216503  0.33508440891792546  0.8823965287994326  1.0000
  O   O6        1.0  0.9066566548891135  0.05612071717589728  0.05123598655348616  1.0000
  O   O7        1.0  0.30338413471767023  0.32974125384965447  0.7490059473488593  1.0000
  O   O8        1.0  0.4447015843620221  0.8658231078384802  0.6560291674086507  1.0000
