data_image0
_chemical_formula_structural       LiO8
_chemical_formula_sum              "Li1 O8"
_cell_length_a       5.249754507535302
_cell_length_b       5.413199314268996
_cell_length_c       5.41221408469246
_cell_angle_alpha    66.06793548132961
_cell_angle_beta     55.04984107024682
_cell_angle_gamma    55.053804050826955

_space_group_name_H-M_alt    "P 1"
_space_group_IT_number       1

loop_
  _space_group_symop_operation_xyz
  'x, y, z'

loop_
  _atom_site_type_symbol
  _atom_site_label
  _atom_site_symmetry_multiplicity
  _atom_site_fract_x
  _atom_site_fract_y
  _atom_site_fract_z
  _atom_site_occupancy
  Li  Li1       1.0  0.629361348464812  0.9807771074133385  0.8254579032223948  1.0000
  O   O1        1.0  0.7481289274648848  0.8088893173109915  0.5673765362538745  1.0000
  O   O2        1.0  0.02863198152558155  0.0806468134414331  0.7675034609179114  1.0000
  O   O3        1.0  0.8316396053272017  0.40759720497174357  0.03494045804897006  1.0000
  O   O4        1.0  0.48245389241382597  0.535296543089693  0.37848839793083444  1.0000
  O   O5        1.0  0.03921780008536402  0.7364180764944321  0.26257716503602246  1.0000
  O   O6        1.0  0.981702329786609  0.8267544200564938  0.9881544342451325  1.0000
  O   O7        1.0  0.07058443649805524  0.5620151349809639  0.6575488584771279  1.0000
  O   O8        1.0  0.8909920140660219  0.6635737245254631  0.20657849357739222  1.0000
