data_image0
_chemical_formula_structural       LiO8
_chemical_formula_sum              "Li1 O8"
_cell_length_a       5.249754507535302
_cell_length_b       5.413199314268996
_cell_length_c       5.41221408469246
_cell_angle_alpha    66.06793548132961
_cell_angle_beta     55.04984107024682
_cell_angle_gamma    55.053804050826955

_space_group_name_H-M_alt    "P 1"
_space_group_IT_number       1

loop_
  _space_group_symop_operation_xyz
  'x, y, z'

loop_
  _atom_site_type_symbol
  _atom_site_label
  _atom_site_symmetry_multiplicity
  _atom_site_fract_x
  _atom_site_fract_y
  _atom_site_fract_z
  _atom_site_occupancy
  Li  Li1       1.0  0.6046988149056176  0.9066085608424466  0.33667198738818627  1.0000
  O   O1        1.0  0.09922667526986828  0.8951042329009056  0.5310934384931247  1.0000
  O   O2        1.0  0.4018946250665092  0.6741112445544664  0.7056917286895157  1.0000
  O   O3        1.0  0.20694715021663512  0.5725489203442322  0.3581019383805355  1.0000
  O   O4        1.0  0.6181432113961698  0.1710452333964625  0.43699819098684145  1.0000
  O   O5        1.0  0.5095902784278508  0.6605319612369485  0.7082039233739579  1.0000
  O   O6        1.0  0.3675973544047917  0.31381720090713827  0.9898276800642805  1.0000
  O   O7        1.0  0.929913345423099  0.5862809826821929  0.06129785703007684  1.0000
  O   O8        1.0  0.16194468636598813  0.3575753899983276  0.6836719451115387  1.0000
