data_image0
_chemical_formula_structural       LiO8
_chemical_formula_sum              "Li1 O8"
_cell_length_a       5.249754507535302
_cell_length_b       5.413199314268996
_cell_length_c       5.41221408469246
_cell_angle_alpha    66.06793548132961
_cell_angle_beta     55.04984107024682
_cell_angle_gamma    55.053804050826955

_space_group_name_H-M_alt    "P 1"
_space_group_IT_number       1

loop_
  _space_group_symop_operation_xyz
  'x, y, z'

loop_
  _atom_site_type_symbol
  _atom_site_label
  _atom_site_symmetry_multiplicity
  _atom_site_fract_x
  _atom_site_fract_y
  _atom_site_fract_z
  _atom_site_occupancy
  Li  Li1       1.0  0.22805649193350064  0.7262957482356853  0.9071217646801841  1.0000
  O   O1        1.0  0.23204029793275538  0.2943189143615079  0.8029141776816751  1.0000
  O   O2        1.0  0.8637497178231062  0.8004720995929127  0.08344201582821142  1.0000
  O   O3        1.0  0.9261901081023325  0.1657314905896925  0.4131802056997813  1.0000
  O   O4        1.0  0.14631985321966567  0.09368654156050482  0.7775844057585459  1.0000
  O   O5        1.0  0.8522633862611713  0.5312530300512783  0.9918685508365925  1.0000
  O   O6        1.0  0.08570965979610667  0.062389372338458315  0.7547445134100599  1.0000
  O   O7        1.0  0.6144450271335771  0.9663180195172791  0.1600930650214849  1.0000
  O   O8        1.0  0.4415788245502288  0.12080998416103483  0.20303734700423037  1.0000
