data_image0
_chemical_formula_structural       LiO8
_chemical_formula_sum              "Li1 O8"
_cell_length_a       5.249754507535302
_cell_length_b       5.413199314268996
_cell_length_c       5.41221408469246
_cell_angle_alpha    66.06793548132961
_cell_angle_beta     55.04984107024682
_cell_angle_gamma    55.053804050826955

_space_group_name_H-M_alt    "P 1"
_space_group_IT_number       1

loop_
  _space_group_symop_operation_xyz
  'x, y, z'

loop_
  _atom_site_type_symbol
  _atom_site_label
  _atom_site_symmetry_multiplicity
  _atom_site_fract_x
  _atom_site_fract_y
  _atom_site_fract_z
  _atom_site_occupancy
  Li  Li1       1.0  0.2700493442628442  0.6560698170609953  0.5865854874011802  1.0000
  O   O1        1.0  0.804103801269747  0.1046907997849047  0.9733048192904761  1.0000
  O   O2        1.0  0.7608178525335614  0.42775882515265096  0.8627687157909278  1.0000
  O   O3        1.0  0.9662273423107024  0.7921348255539238  0.39100572255692967  1.0000
  O   O4        1.0  0.729859237127954  0.25802014210554347  0.47105947735568066  1.0000
  O   O5        1.0  0.8442589779636194  0.27976726546024366  0.8517965613196168  1.0000
  O   O6        1.0  0.34117174114738624  0.5568574414471463  0.8339308272695725  1.0000
  O   O7        1.0  0.3627590472121591  0.2818470899164254  0.463523545660113  1.0000
  O   O8        1.0  0.7241477269172165  0.3258107292498309  0.07023101558579015  1.0000
