data_image0
_chemical_formula_structural       LiO8
_chemical_formula_sum              "Li1 O8"
_cell_length_a       5.249754507535302
_cell_length_b       5.413199314268996
_cell_length_c       5.41221408469246
_cell_angle_alpha    66.06793548132961
_cell_angle_beta     55.04984107024682
_cell_angle_gamma    55.053804050826955

_space_group_name_H-M_alt    "P 1"
_space_group_IT_number       1

loop_
  _space_group_symop_operation_xyz
  'x, y, z'

loop_
  _atom_site_type_symbol
  _atom_site_label
  _atom_site_symmetry_multiplicity
  _atom_site_fract_x
  _atom_site_fract_y
  _atom_site_fract_z
  _atom_site_occupancy
  Li  Li1       1.0  0.9625530120681844  0.38137917460354487  0.37679657364937214  1.0000
  O   O1        1.0  0.5110224722880012  0.9052864202177702  0.05046186753331483  1.0000
  O   O2        1.0  0.05541140006855905  0.5007231757835404  0.5715832730635242  1.0000
  O   O3        1.0  0.9193776919989034  0.7511757860723236  0.3333714337557865  1.0000
  O   O4        1.0  0.8147692248129488  0.1887778211380322  0.9626589857847883  1.0000
  O   O5        1.0  0.7055745105298925  0.2707829848642689  0.8633221931917667  1.0000
  O   O6        1.0  0.3883456292494003  0.08970863900920811  0.41437682073112825  1.0000
  O   O7        1.0  0.3560499475938883  0.7382476491804724  0.5910996056860114  1.0000
  O   O8        1.0  0.5291535363650297  0.35316170363409327  0.7913595301978571  1.0000
