data_image0
_chemical_formula_structural       LiO8
_chemical_formula_sum              "Li1 O8"
_cell_length_a       5.249754507535302
_cell_length_b       5.413199314268996
_cell_length_c       5.41221408469246
_cell_angle_alpha    66.06793548132961
_cell_angle_beta     55.04984107024682
_cell_angle_gamma    55.053804050826955

_space_group_name_H-M_alt    "P 1"
_space_group_IT_number       1

loop_
  _space_group_symop_operation_xyz
  'x, y, z'

loop_
  _atom_site_type_symbol
  _atom_site_label
  _atom_site_symmetry_multiplicity
  _atom_site_fract_x
  _atom_site_fract_y
  _atom_site_fract_z
  _atom_site_occupancy
  Li  Li1       1.0  0.17144002824602467  0.4825245212618512  0.4465830183402346  1.0000
  O   O1        1.0  0.3173424563226823  0.04933940440435691  0.9729857547652898  1.0000
  O   O2        1.0  0.7744594083034926  0.6671558308547922  0.44197852273357086  1.0000
  O   O3        1.0  0.8986085915144812  0.977599532583362  0.03512557980876441  1.0000
  O   O4        1.0  0.9170571657472486  0.6214915298410917  0.34001944095087744  1.0000
  O   O5        1.0  0.7785952188774896  0.2929587681098553  0.7830204780923644  1.0000
  O   O6        1.0  0.878978934457475  0.21406766705620495  0.9628249893473679  1.0000
  O   O7        1.0  0.42804672080291795  0.7538621937226502  0.6914257191028099  1.0000
  O   O8        1.0  0.8724621054302499  0.6859651523906258  0.41460213353827946  1.0000
