data_image0
_chemical_formula_structural       LiO8
_chemical_formula_sum              "Li1 O8"
_cell_length_a       5.249754507535302
_cell_length_b       5.413199314268996
_cell_length_c       5.41221408469246
_cell_angle_alpha    66.06793548132961
_cell_angle_beta     55.04984107024682
_cell_angle_gamma    55.053804050826955

_space_group_name_H-M_alt    "P 1"
_space_group_IT_number       1

loop_
  _space_group_symop_operation_xyz
  'x, y, z'

loop_
  _atom_site_type_symbol
  _atom_site_label
  _atom_site_symmetry_multiplicity
  _atom_site_fract_x
  _atom_site_fract_y
  _atom_site_fract_z
  _atom_site_occupancy
  Li  Li1       1.0  0.0425056196254161  0.6422075497638531  0.668280919447362  1.0000
  O   O1        1.0  0.29427506436633877  0.054623708616769795  0.6749993120558031  1.0000
  O   O2        1.0  0.7107395723425327  0.9892684289150395  0.7833433288429461  1.0000
  O   O3        1.0  0.9749451071008934  0.8946795280247137  0.878846269012378  1.0000
  O   O4        1.0  0.4738543890983635  0.5699016628160707  0.7435344014122336  1.0000
  O   O5        1.0  0.14967263336377812  0.5214570140058008  0.5044246657314488  1.0000
  O   O6        1.0  0.676458475153149  0.47271805404356826  0.7908165373019571  1.0000
  O   O7        1.0  0.6204154472096395  0.12208277690486469  0.44963011393209484  1.0000
  O   O8        1.0  0.856225915358543  0.9440018359954081  0.46432431018842557  1.0000
