data_image0
_chemical_formula_structural       LiO8
_chemical_formula_sum              "Li1 O8"
_cell_length_a       5.249754507535302
_cell_length_b       5.413199314268996
_cell_length_c       5.41221408469246
_cell_angle_alpha    66.06793548132961
_cell_angle_beta     55.04984107024682
_cell_angle_gamma    55.053804050826955

_space_group_name_H-M_alt    "P 1"
_space_group_IT_number       1

loop_
  _space_group_symop_operation_xyz
  'x, y, z'

loop_
  _atom_site_type_symbol
  _atom_site_label
  _atom_site_symmetry_multiplicity
  _atom_site_fract_x
  _atom_site_fract_y
  _atom_site_fract_z
  _atom_site_occupancy
  Li  Li1       1.0  0.4309244250231359  0.45990149354651066  0.8908796078007555  1.0000
  O   O1        1.0  0.43272767697599335  0.3192443564211249  0.39435144835856306  1.0000
  O   O2        1.0  0.4912411416932745  0.9481080860831099  0.7528476492140896  1.0000
  O   O3        1.0  0.23171687188965961  0.6333294273476255  0.9982978811978995  1.0000
  O   O4        1.0  0.15166516617716752  0.005130777078386828  0.8875705208998284  1.0000
  O   O5        1.0  0.4616090178412975  0.7172089368450969  0.4929316782071709  1.0000
  O   O6        1.0  0.7791501542507895  0.11422379787543235  0.5533183914022999  1.0000
  O   O7        1.0  0.7649863540609063  0.6865812415328723  0.8767277372797224  1.0000
  O   O8        1.0  0.4456808908660719  0.4712490939902807  0.6277781292549989  1.0000
