data_image0
_chemical_formula_structural       LiO8
_chemical_formula_sum              "Li1 O8"
_cell_length_a       5.249754507535302
_cell_length_b       5.413199314268996
_cell_length_c       5.41221408469246
_cell_angle_alpha    66.06793548132961
_cell_angle_beta     55.04984107024682
_cell_angle_gamma    55.053804050826955

_space_group_name_H-M_alt    "P 1"
_space_group_IT_number       1

loop_
  _space_group_symop_operation_xyz
  'x, y, z'

loop_
  _atom_site_type_symbol
  _atom_site_label
  _atom_site_symmetry_multiplicity
  _atom_site_fract_x
  _atom_site_fract_y
  _atom_site_fract_z
  _atom_site_occupancy
  Li  Li1       1.0  0.31837901675043323  0.20295400068662062  0.7413200536503655  1.0000
  O   O1        1.0  0.3260800389441769  0.3078914713090306  0.68870917978915  1.0000
  O   O2        1.0  0.08828208053348874  0.7011840026687253  0.3113408672482656  1.0000
  O   O3        1.0  0.29601193298889683  0.6733852990518727  0.26690267216220276  1.0000
  O   O4        1.0  0.703588958646538  0.33294781727028777  0.029962074436685526  1.0000
  O   O5        1.0  0.888727939557846  0.6309714263096531  0.6380257687968545  1.0000
  O   O6        1.0  0.8838317881367495  0.8947773826415926  0.39803642245623827  1.0000
  O   O7        1.0  0.8840267930350088  0.5027433878421874  0.9063034916111441  1.0000
  O   O8        1.0  0.518097402614913  0.3292772975299485  0.04741312290972566  1.0000
