data_image0
_chemical_formula_structural       LiO8
_chemical_formula_sum              "Li1 O8"
_cell_length_a       5.249754507535302
_cell_length_b       5.413199314268996
_cell_length_c       5.41221408469246
_cell_angle_alpha    66.06793548132961
_cell_angle_beta     55.04984107024682
_cell_angle_gamma    55.053804050826955

_space_group_name_H-M_alt    "P 1"
_space_group_IT_number       1

loop_
  _space_group_symop_operation_xyz
  'x, y, z'

loop_
  _atom_site_type_symbol
  _atom_site_label
  _atom_site_symmetry_multiplicity
  _atom_site_fract_x
  _atom_site_fract_y
  _atom_site_fract_z
  _atom_site_occupancy
  Li  Li1       1.0  0.9161602296766773  0.847104030462674  0.2934916585424787  1.0000
  O   O1        1.0  0.6006812372741379  0.09843808880216898  0.307841606814236  1.0000
  O   O2        1.0  0.20904427620607713  0.2068865645742335  0.8009860650199769  1.0000
  O   O3        1.0  0.7617923908164599  0.41572331750539426  0.5328757325897513  1.0000
  O   O4        1.0  0.14424858318132294  0.42149005835664743  0.16255266666121315  1.0000
  O   O5        1.0  0.6336146324620415  0.9765128784361903  0.6709286145891724  1.0000
  O   O6        1.0  0.3131426906486545  0.05780556248233637  0.4331082485208455  1.0000
  O   O7        1.0  0.2761250118961587  0.4153873101910541  0.6209134278599535  1.0000
  O   O8        1.0  0.21023555931562043  0.34521741520588023  0.010635907031421254  1.0000
