data_image0
_chemical_formula_structural       LiO8
_chemical_formula_sum              "Li1 O8"
_cell_length_a       5.249754507535302
_cell_length_b       5.413199314268996
_cell_length_c       5.41221408469246
_cell_angle_alpha    66.06793548132961
_cell_angle_beta     55.04984107024682
_cell_angle_gamma    55.053804050826955

_space_group_name_H-M_alt    "P 1"
_space_group_IT_number       1

loop_
  _space_group_symop_operation_xyz
  'x, y, z'

loop_
  _atom_site_type_symbol
  _atom_site_label
  _atom_site_symmetry_multiplicity
  _atom_site_fract_x
  _atom_site_fract_y
  _atom_site_fract_z
  _atom_site_occupancy
  Li  Li1       1.0  0.9554486073963062  0.4395559522860175  0.8370786647383817  1.0000
  O   O1        1.0  0.028618722352161008  0.8203597610770537  0.5311437061803943  1.0000
  O   O2        1.0  0.559384342152871  0.6206210548632995  0.8015883290572923  1.0000
  O   O3        1.0  0.8167027736056411  0.8937631800800503  0.14094993738120998  1.0000
  O   O4        1.0  0.6208269672071847  0.23993584770261123  0.693807085919655  1.0000
  O   O5        1.0  0.41921647177479615  0.09092623877672068  0.11248824166883509  1.0000
  O   O6        1.0  0.5849593678641121  0.8357830104523387  0.051954678964088785  1.0000
  O   O7        1.0  0.5434207471303623  0.6099081178173478  0.6415666614506108  1.0000
  O   O8        1.0  0.47376834037289584  0.25578090955877286  0.24795047039240892  1.0000
