data_image0
_chemical_formula_structural       LiO8
_chemical_formula_sum              "Li1 O8"
_cell_length_a       5.249754507535302
_cell_length_b       5.413199314268996
_cell_length_c       5.41221408469246
_cell_angle_alpha    66.06793548132961
_cell_angle_beta     55.04984107024682
_cell_angle_gamma    55.053804050826955

_space_group_name_H-M_alt    "P 1"
_space_group_IT_number       1

loop_
  _space_group_symop_operation_xyz
  'x, y, z'

loop_
  _atom_site_type_symbol
  _atom_site_label
  _atom_site_symmetry_multiplicity
  _atom_site_fract_x
  _atom_site_fract_y
  _atom_site_fract_z
  _atom_site_occupancy
  Li  Li1       1.0  0.35362954676671166  0.3314290999338567  0.8283367815284777  1.0000
  O   O1        1.0  0.33800031043787726  0.43493042279271776  0.9109078773484462  1.0000
  O   O2        1.0  0.5153845160968054  0.6697716011751567  0.4203443243557512  1.0000
  O   O3        1.0  0.647606372144871  0.27695000578999895  0.11342629437843499  1.0000
  O   O4        1.0  0.2723195882659164  0.8752500123554867  0.06586117672810587  1.0000
  O   O5        1.0  0.9613910380931614  0.24715574600778734  0.534295578510974  1.0000
  O   O6        1.0  0.3236181986183482  0.6072056699293729  0.6868056760058785  1.0000
  O   O7        1.0  0.2059496027327441  0.3942670839680922  0.4904363060257566  1.0000
  O   O8        1.0  0.34496908686465133  0.5377750679117028  0.9144343431964046  1.0000
