data_image0
_chemical_formula_structural       LiO8
_chemical_formula_sum              "Li1 O8"
_cell_length_a       5.249754507535302
_cell_length_b       5.413199314268996
_cell_length_c       5.41221408469246
_cell_angle_alpha    66.06793548132961
_cell_angle_beta     55.04984107024682
_cell_angle_gamma    55.053804050826955

_space_group_name_H-M_alt    "P 1"
_space_group_IT_number       1

loop_
  _space_group_symop_operation_xyz
  'x, y, z'

loop_
  _atom_site_type_symbol
  _atom_site_label
  _atom_site_symmetry_multiplicity
  _atom_site_fract_x
  _atom_site_fract_y
  _atom_site_fract_z
  _atom_site_occupancy
  Li  Li1       1.0  0.6613856456338283  0.2694407770399181  0.9510634921589798  1.0000
  O   O1        1.0  0.5809685632230952  0.6996538361984079  0.25234052134723406  1.0000
  O   O2        1.0  0.312654590775967  0.17287226874815786  0.7247060660972728  1.0000
  O   O3        1.0  0.9001162680195165  0.8656280047129172  0.09599862072926157  1.0000
  O   O4        1.0  0.29712177330163314  0.7732741458073171  0.21796562278029796  1.0000
  O   O5        1.0  0.836541365802205  0.38963478793686335  0.6105237979083995  1.0000
  O   O6        1.0  0.8596021735877297  0.2671994567990552  0.6735377635893371  1.0000
  O   O7        1.0  0.07094288249242453  0.9469444383929284  0.8647604018661355  1.0000
  O   O8        1.0  0.16771416408189532  0.7169686548265926  0.25562583809555156  1.0000
