data_image0
_chemical_formula_structural       LiO8
_chemical_formula_sum              "Li1 O8"
_cell_length_a       5.249754507535302
_cell_length_b       5.413199314268996
_cell_length_c       5.41221408469246
_cell_angle_alpha    66.06793548132961
_cell_angle_beta     55.04984107024682
_cell_angle_gamma    55.053804050826955

_space_group_name_H-M_alt    "P 1"
_space_group_IT_number       1

loop_
  _space_group_symop_operation_xyz
  'x, y, z'

loop_
  _atom_site_type_symbol
  _atom_site_label
  _atom_site_symmetry_multiplicity
  _atom_site_fract_x
  _atom_site_fract_y
  _atom_site_fract_z
  _atom_site_occupancy
  Li  Li1       1.0  0.6623823355721754  0.1345196570653684  0.584947265722235  1.0000
  O   O1        1.0  0.1856279987695686  0.8830290172310669  0.004450133180142757  1.0000
  O   O2        1.0  0.7758379694397237  0.29989303546670953  0.8930967130943372  1.0000
  O   O3        1.0  0.08150973539061823  0.35236846250697323  0.17568344636073974  1.0000
  O   O4        1.0  0.5433536910690862  0.4416032147330915  0.4887363596140517  1.0000
  O   O5        1.0  0.8862303243013514  0.11399099035812021  0.8212063975185941  1.0000
  O   O6        1.0  0.8369649722951067  0.5752822976695882  0.07738094230034775  1.0000
  O   O7        1.0  0.3086204392370684  0.38490378693275495  0.8270656538832775  1.0000
  O   O8        1.0  0.8730071926912686  0.3760168703772351  0.9600966984013546  1.0000
