data_image0
_chemical_formula_structural       LiO8
_chemical_formula_sum              "Li1 O8"
_cell_length_a       5.249754507535302
_cell_length_b       5.413199314268996
_cell_length_c       5.41221408469246
_cell_angle_alpha    66.06793548132961
_cell_angle_beta     55.04984107024682
_cell_angle_gamma    55.053804050826955

_space_group_name_H-M_alt    "P 1"
_space_group_IT_number       1

loop_
  _space_group_symop_operation_xyz
  'x, y, z'

loop_
  _atom_site_type_symbol
  _atom_site_label
  _atom_site_symmetry_multiplicity
  _atom_site_fract_x
  _atom_site_fract_y
  _atom_site_fract_z
  _atom_site_occupancy
  Li  Li1       1.0  0.11426502763701762  0.6664161840628395  0.15485847614994697  1.0000
  O   O1        1.0  0.31889201410961476  0.1426129254154631  0.8886955905406735  1.0000
  O   O2        1.0  0.9101645963614038  0.4696848883829645  0.36787373752382635  1.0000
  O   O3        1.0  0.9075296240649209  0.455715634982667  0.024221098456813195  1.0000
  O   O4        1.0  0.19456128504449488  0.8787472784024164  0.01581255254119185  1.0000
  O   O5        1.0  0.40269175365314425  0.12690063583583822  0.7605410703090136  1.0000
  O   O6        1.0  0.13433741688295386  0.3921023486424211  0.9755834558134326  1.0000
  O   O7        1.0  0.09373357811115568  0.8936868549081618  0.8193669484256105  1.0000
  O   O8        1.0  0.13448628952174024  0.38899826158390827  0.11786929258877699  1.0000
