data_image0
_chemical_formula_structural       LiO8
_chemical_formula_sum              "Li1 O8"
_cell_length_a       5.249754507535302
_cell_length_b       5.413199314268996
_cell_length_c       5.41221408469246
_cell_angle_alpha    66.06793548132961
_cell_angle_beta     55.04984107024682
_cell_angle_gamma    55.053804050826955

_space_group_name_H-M_alt    "P 1"
_space_group_IT_number       1

loop_
  _space_group_symop_operation_xyz
  'x, y, z'

loop_
  _atom_site_type_symbol
  _atom_site_label
  _atom_site_symmetry_multiplicity
  _atom_site_fract_x
  _atom_site_fract_y
  _atom_site_fract_z
  _atom_site_occupancy
  Li  Li1       1.0  0.5970565495072435  0.041222083568399626  0.7535155966858724  1.0000
  O   O1        1.0  0.8005895063031367  0.9583731771649635  0.26356771376994104  1.0000
  O   O2        1.0  0.5847980605603382  0.1548776988484617  0.9641868085737926  1.0000
  O   O3        1.0  0.8792810932295012  0.18020723334367972  0.14319347356385492  1.0000
  O   O4        1.0  0.18188690051665546  0.6231380217965494  0.6930463702334357  1.0000
  O   O5        1.0  0.4538166098997074  0.07540269355979667  0.3379629241836639  1.0000
  O   O6        1.0  0.2160536863977356  0.39662826322821987  0.91621099632248  1.0000
  O   O7        1.0  0.0066485962392732745  0.540878782009429  0.943252804653028  1.0000
  O   O8        1.0  0.457240893126702  0.4343209449804206  0.7235451616138189  1.0000
