data_image0
_chemical_formula_structural       LiO8
_chemical_formula_sum              "Li1 O8"
_cell_length_a       5.249754507535302
_cell_length_b       5.413199314268996
_cell_length_c       5.41221408469246
_cell_angle_alpha    66.06793548132961
_cell_angle_beta     55.04984107024682
_cell_angle_gamma    55.053804050826955

_space_group_name_H-M_alt    "P 1"
_space_group_IT_number       1

loop_
  _space_group_symop_operation_xyz
  'x, y, z'

loop_
  _atom_site_type_symbol
  _atom_site_label
  _atom_site_symmetry_multiplicity
  _atom_site_fract_x
  _atom_site_fract_y
  _atom_site_fract_z
  _atom_site_occupancy
  Li  Li1       1.0  0.9780293014791255  0.6747957034777272  0.954827241688804  1.0000
  O   O1        1.0  0.013844385119725189  0.16182977379606456  0.4072416809901078  1.0000
  O   O2        1.0  0.9236289830186415  0.044677021841625475  0.7211371103411768  1.0000
  O   O3        1.0  0.32266371211583333  0.33022597859661573  0.9951172359503531  1.0000
  O   O4        1.0  0.754621467001857  0.9660453498049861  0.8640851592869438  1.0000
  O   O5        1.0  0.3279754441295317  0.902914133095174  0.4786940508425097  1.0000
  O   O6        1.0  0.8456087102860188  0.5985183310542173  0.07294915316650474  1.0000
  O   O7        1.0  0.9764967745003901  0.8176533966137036  0.6502485334635537  1.0000
  O   O8        1.0  0.47571918300882743  0.5280661871453196  0.0148015752948929  1.0000
