data_image0
_chemical_formula_structural       LiO8
_chemical_formula_sum              "Li1 O8"
_cell_length_a       5.249754507535302
_cell_length_b       5.413199314268996
_cell_length_c       5.41221408469246
_cell_angle_alpha    66.06793548132961
_cell_angle_beta     55.04984107024682
_cell_angle_gamma    55.053804050826955

_space_group_name_H-M_alt    "P 1"
_space_group_IT_number       1

loop_
  _space_group_symop_operation_xyz
  'x, y, z'

loop_
  _atom_site_type_symbol
  _atom_site_label
  _atom_site_symmetry_multiplicity
  _atom_site_fract_x
  _atom_site_fract_y
  _atom_site_fract_z
  _atom_site_occupancy
  Li  Li1       1.0  0.07313622903962624  0.8314153701168401  0.8284726579510178  1.0000
  O   O1        1.0  0.9484510333816836  0.718091359825296  0.9118167068392253  1.0000
  O   O2        1.0  0.13580701210221235  0.8241350936616492  0.22690513073662544  1.0000
  O   O3        1.0  0.3827569303184717  0.8103365660996786  0.7405261713273426  1.0000
  O   O4        1.0  0.9364905345209014  0.16682598441295937  0.8145530142890891  1.0000
  O   O5        1.0  0.18329691380048851  0.06364617429073505  0.5995098868216555  1.0000
  O   O6        1.0  0.7905238175015574  0.18859937660703263  0.7220197819359147  1.0000
  O   O7        1.0  0.2019193875709817  0.8336406671272911  0.9950028828293682  1.0000
  O   O8        1.0  0.30043788505051694  0.9057570151018091  0.9076001311631066  1.0000
