data_image0
_chemical_formula_structural       LiO8
_chemical_formula_sum              "Li1 O8"
_cell_length_a       5.249754507535302
_cell_length_b       5.413199314268996
_cell_length_c       5.41221408469246
_cell_angle_alpha    66.06793548132961
_cell_angle_beta     55.04984107024682
_cell_angle_gamma    55.053804050826955

_space_group_name_H-M_alt    "P 1"
_space_group_IT_number       1

loop_
  _space_group_symop_operation_xyz
  'x, y, z'

loop_
  _atom_site_type_symbol
  _atom_site_label
  _atom_site_symmetry_multiplicity
  _atom_site_fract_x
  _atom_site_fract_y
  _atom_site_fract_z
  _atom_site_occupancy
  Li  Li1       1.0  0.364585341595955  0.22039970648288154  0.9584088082577793  1.0000
  O   O1        1.0  0.3545947246655956  0.15884184569639004  0.8558459460658234  1.0000
  O   O2        1.0  0.09930405388901282  0.0040823344669576045  0.44768041412191195  1.0000
  O   O3        1.0  0.8065139856762045  0.13075347586064012  0.3037537238083985  1.0000
  O   O4        1.0  0.4389829161042371  0.4071300530112971  0.45340010612572  1.0000
  O   O5        1.0  0.12168236375424613  0.7763456985480488  0.8602784568463981  1.0000
  O   O6        1.0  0.9449413000911058  0.35479004711039863  0.14670348371831032  1.0000
  O   O7        1.0  0.3094953987898137  0.5094357686400421  0.4121699868088484  1.0000
  O   O8        1.0  0.8307121859177051  0.33368640263973504  0.9955569943233442  1.0000
