data_image0
_chemical_formula_structural       LiO8
_chemical_formula_sum              "Li1 O8"
_cell_length_a       5.249754507535302
_cell_length_b       5.413199314268996
_cell_length_c       5.41221408469246
_cell_angle_alpha    66.06793548132961
_cell_angle_beta     55.04984107024682
_cell_angle_gamma    55.053804050826955

_space_group_name_H-M_alt    "P 1"
_space_group_IT_number       1

loop_
  _space_group_symop_operation_xyz
  'x, y, z'

loop_
  _atom_site_type_symbol
  _atom_site_label
  _atom_site_symmetry_multiplicity
  _atom_site_fract_x
  _atom_site_fract_y
  _atom_site_fract_z
  _atom_site_occupancy
  Li  Li1       1.0  0.11631626421970509  0.13076730080159393  0.5370003507065775  1.0000
  O   O1        1.0  0.29589948287703294  0.8447815386639626  0.8962033093114457  1.0000
  O   O2        1.0  0.7343487420975778  0.06008260607346472  0.4775699921061545  1.0000
  O   O3        1.0  0.2207607664334219  0.5904259898390603  0.21381086470609745  1.0000
  O   O4        1.0  0.4721217371175399  0.3435122824170431  0.44786953799945195  1.0000
  O   O5        1.0  0.12042611174273077  0.6822174467732259  0.23323039502331255  1.0000
  O   O6        1.0  0.16342645827747182  0.5902352567838918  0.35659124274415177  1.0000
  O   O7        1.0  0.81810631877888  0.8404619538597746  0.8110492573805601  1.0000
  O   O8        1.0  0.09374957731797195  0.9971137370072114  0.421096119928853  1.0000
