data_image0
_chemical_formula_structural       LiO8
_chemical_formula_sum              "Li1 O8"
_cell_length_a       5.249754507535302
_cell_length_b       5.413199314268996
_cell_length_c       5.41221408469246
_cell_angle_alpha    66.06793548132961
_cell_angle_beta     55.04984107024682
_cell_angle_gamma    55.053804050826955

_space_group_name_H-M_alt    "P 1"
_space_group_IT_number       1

loop_
  _space_group_symop_operation_xyz
  'x, y, z'

loop_
  _atom_site_type_symbol
  _atom_site_label
  _atom_site_symmetry_multiplicity
  _atom_site_fract_x
  _atom_site_fract_y
  _atom_site_fract_z
  _atom_site_occupancy
  Li  Li1       1.0  0.046548613496611324  0.9589769878375023  0.2051190178233142  1.0000
  O   O1        1.0  0.18895807319098168  0.6315163955819321  0.5083748106331143  1.0000
  O   O2        1.0  0.453950086940619  0.3185114190837979  0.2860704896814852  1.0000
  O   O3        1.0  0.47926979090027544  0.7428030722304904  0.26663688758851123  1.0000
  O   O4        1.0  0.1519430697424724  0.8851426038713479  0.02183465489355285  1.0000
  O   O5        1.0  0.40554331218055495  0.8617338256460272  0.5447603988139065  1.0000
  O   O6        1.0  0.12337187665410809  0.15643149285455848  0.6811554975524814  1.0000
  O   O7        1.0  0.3993383231312624  0.5300155434750113  0.6595790859049036  1.0000
  O   O8        1.0  0.6334221463604024  0.1042958761564563  0.9750909398618459  1.0000
