data_image0
_chemical_formula_structural       LiO8
_chemical_formula_sum              "Li1 O8"
_cell_length_a       5.249754507535302
_cell_length_b       5.413199314268996
_cell_length_c       5.41221408469246
_cell_angle_alpha    66.06793548132961
_cell_angle_beta     55.04984107024682
_cell_angle_gamma    55.053804050826955

_space_group_name_H-M_alt    "P 1"
_space_group_IT_number       1

loop_
  _space_group_symop_operation_xyz
  'x, y, z'

loop_
  _atom_site_type_symbol
  _atom_site_label
  _atom_site_symmetry_multiplicity
  _atom_site_fract_x
  _atom_site_fract_y
  _atom_site_fract_z
  _atom_site_occupancy
  Li  Li1       1.0  0.582687224843113  0.6944955494281402  0.38789848141068006  1.0000
  O   O1        1.0  0.3511769984824298  0.1458017150688775  0.9370946606487305  1.0000
  O   O2        1.0  0.8925167273385561  0.49699356388214966  0.3287062807409882  1.0000
  O   O3        1.0  0.07604385739318786  0.2880584308315548  0.7015964980835676  1.0000
  O   O4        1.0  0.314588801802552  0.029204106065662927  0.9060415234140748  1.0000
  O   O5        1.0  0.609218516256874  0.5180793124690624  0.8353222720908846  1.0000
  O   O6        1.0  0.3940757677851199  0.2240620034162788  0.45687191799000715  1.0000
  O   O7        1.0  0.3381681047634686  0.09546110032543176  0.039952441612307155  1.0000
  O   O8        1.0  0.9872196504267619  0.4780746884899294  0.7931691362813069  1.0000
