data_image0
_chemical_formula_structural       LiO8
_chemical_formula_sum              "Li1 O8"
_cell_length_a       5.249754507535302
_cell_length_b       5.413199314268996
_cell_length_c       5.41221408469246
_cell_angle_alpha    66.06793548132961
_cell_angle_beta     55.04984107024682
_cell_angle_gamma    55.053804050826955

_space_group_name_H-M_alt    "P 1"
_space_group_IT_number       1

loop_
  _space_group_symop_operation_xyz
  'x, y, z'

loop_
  _atom_site_type_symbol
  _atom_site_label
  _atom_site_symmetry_multiplicity
  _atom_site_fract_x
  _atom_site_fract_y
  _atom_site_fract_z
  _atom_site_occupancy
  Li  Li1       1.0  0.3369824188399946  0.46013428193559136  0.6083584849315073  1.0000
  O   O1        1.0  0.8839869727316696  0.4490446757687607  0.7581202017526062  1.0000
  O   O2        1.0  0.18121034338117425  0.7019158205270735  0.23297729871439543  1.0000
  O   O3        1.0  0.49407648248904934  0.6667625723253039  0.05202417337173415  1.0000
  O   O4        1.0  0.29616554388266003  0.25834028876592185  0.1513332733434325  1.0000
  O   O5        1.0  0.5988504278185616  0.7810138020756483  0.730203735083947  1.0000
  O   O6        1.0  0.38724883660995646  0.8799921486295972  0.24613150751737845  1.0000
  O   O7        1.0  0.12771495845847625  0.3248486642996591  0.38969240244107084  1.0000
  O   O8        1.0  0.3516677731795521  0.7177139236281445  0.3717572636175497  1.0000
