data_image0
_chemical_formula_structural       LiO8
_chemical_formula_sum              "Li1 O8"
_cell_length_a       5.249754507535302
_cell_length_b       5.413199314268996
_cell_length_c       5.41221408469246
_cell_angle_alpha    66.06793548132961
_cell_angle_beta     55.04984107024682
_cell_angle_gamma    55.053804050826955

_space_group_name_H-M_alt    "P 1"
_space_group_IT_number       1

loop_
  _space_group_symop_operation_xyz
  'x, y, z'

loop_
  _atom_site_type_symbol
  _atom_site_label
  _atom_site_symmetry_multiplicity
  _atom_site_fract_x
  _atom_site_fract_y
  _atom_site_fract_z
  _atom_site_occupancy
  Li  Li1       1.0  0.6268309509874346  0.7997865479846951  0.028799471968921964  1.0000
  O   O1        1.0  0.5447921987587818  0.28464994531737675  0.33928350296749343  1.0000
  O   O2        1.0  0.026957039996219123  0.6200033846710777  0.9106216764411812  1.0000
  O   O3        1.0  0.7455759260494332  0.9865914647591154  0.2795808407540239  1.0000
  O   O4        1.0  0.1177856066452243  0.398739602991828  0.3264918807769748  1.0000
  O   O5        1.0  0.09893193045202864  0.472644977791318  0.9823706228898317  1.0000
  O   O6        1.0  0.875741294319635  0.1907433463894428  0.8588275994144148  1.0000
  O   O7        1.0  0.5019356203809391  0.3052939847850702  0.579545968405947  1.0000
  O   O8        1.0  0.9218361518637757  0.5687390790237288  0.19529253386455836  1.0000
