data_image0
_chemical_formula_structural       LiO8
_chemical_formula_sum              "Li1 O8"
_cell_length_a       5.249754507535302
_cell_length_b       5.413199314268996
_cell_length_c       5.41221408469246
_cell_angle_alpha    66.06793548132961
_cell_angle_beta     55.04984107024682
_cell_angle_gamma    55.053804050826955

_space_group_name_H-M_alt    "P 1"
_space_group_IT_number       1

loop_
  _space_group_symop_operation_xyz
  'x, y, z'

loop_
  _atom_site_type_symbol
  _atom_site_label
  _atom_site_symmetry_multiplicity
  _atom_site_fract_x
  _atom_site_fract_y
  _atom_site_fract_z
  _atom_site_occupancy
  Li  Li1       1.0  0.12216805781768869  0.2052288039482999  0.5930134183765929  1.0000
  O   O1        1.0  0.2398691096116039  0.8938996208829479  0.3964482401435463  1.0000
  O   O2        1.0  0.25166833496136887  0.46206575991596743  0.9780327750192654  1.0000
  O   O3        1.0  0.2561870426021926  0.17939591563639112  0.9858458156180276  1.0000
  O   O4        1.0  0.1770257284043133  0.23542791972803911  0.8650202461235352  1.0000
  O   O5        1.0  0.26464997839146065  0.4435272706409279  0.28480096336741667  1.0000
  O   O6        1.0  0.8558348647315785  0.30238753041101774  0.08935831086316881  1.0000
  O   O7        1.0  0.30818756169549744  0.9211268983002938  0.2623128286026528  1.0000
  O   O8        1.0  0.431846558311916  0.19452453887967636  0.4485862446291087  1.0000
