data_image0
_chemical_formula_structural       LiO8
_chemical_formula_sum              "Li1 O8"
_cell_length_a       5.249754507535302
_cell_length_b       5.413199314268996
_cell_length_c       5.41221408469246
_cell_angle_alpha    66.06793548132961
_cell_angle_beta     55.04984107024682
_cell_angle_gamma    55.053804050826955

_space_group_name_H-M_alt    "P 1"
_space_group_IT_number       1

loop_
  _space_group_symop_operation_xyz
  'x, y, z'

loop_
  _atom_site_type_symbol
  _atom_site_label
  _atom_site_symmetry_multiplicity
  _atom_site_fract_x
  _atom_site_fract_y
  _atom_site_fract_z
  _atom_site_occupancy
  Li  Li1       1.0  0.6747093851348893  0.5292451033888383  0.8889963353127825  1.0000
  O   O1        1.0  0.4215084677644967  0.6531967623578936  0.5857248095869423  1.0000
  O   O2        1.0  0.2687390012362769  0.6559595215418703  0.9470914679734594  1.0000
  O   O3        1.0  0.588108830070027  0.1687678038779552  0.7123965319954806  1.0000
  O   O4        1.0  0.6231960481765428  0.5564625890140533  0.9398329409047008  1.0000
  O   O5        1.0  0.27722159140748204  0.9495003595616769  0.950052207823829  1.0000
  O   O6        1.0  0.2965423429850489  0.6902939570984152  0.2855323103001304  1.0000
  O   O7        1.0  0.7676750733246109  0.39219699858470847  0.6262031237156691  1.0000
  O   O8        1.0  0.39615422868615013  0.23936487570889753  0.5524888352066029  1.0000
