data_image0
_chemical_formula_structural       LiO8
_chemical_formula_sum              "Li1 O8"
_cell_length_a       5.249754507535302
_cell_length_b       5.413199314268996
_cell_length_c       5.41221408469246
_cell_angle_alpha    66.06793548132961
_cell_angle_beta     55.04984107024682
_cell_angle_gamma    55.053804050826955

_space_group_name_H-M_alt    "P 1"
_space_group_IT_number       1

loop_
  _space_group_symop_operation_xyz
  'x, y, z'

loop_
  _atom_site_type_symbol
  _atom_site_label
  _atom_site_symmetry_multiplicity
  _atom_site_fract_x
  _atom_site_fract_y
  _atom_site_fract_z
  _atom_site_occupancy
  Li  Li1       1.0  0.39633095443856803  0.48421012638061356  0.38660479160504124  1.0000
  O   O1        1.0  0.7656680423153581  0.6003622034413922  0.4756691770174539  1.0000
  O   O2        1.0  0.2158406307457903  0.0994367587248619  0.09351832299282936  1.0000
  O   O3        1.0  0.5589021712564133  0.654259597577397  0.8485907421663654  1.0000
  O   O4        1.0  0.8367155864262443  0.34820928713814325  0.47625902080045535  1.0000
  O   O5        1.0  0.7444150839542303  0.8587471128334414  0.2430779353239867  1.0000
  O   O6        1.0  0.3989124592850928  0.3644598537312298  0.3337048909387903  1.0000
  O   O7        1.0  0.8503258772109303  0.6425729912978007  0.4254630700891546  1.0000
  O   O8        1.0  0.7248422387218696  0.25558532249060306  0.9148467381527503  1.0000
