data_image0
_chemical_formula_structural       LiO8
_chemical_formula_sum              "Li1 O8"
_cell_length_a       5.249754507535302
_cell_length_b       5.413199314268996
_cell_length_c       5.41221408469246
_cell_angle_alpha    66.06793548132961
_cell_angle_beta     55.04984107024682
_cell_angle_gamma    55.053804050826955

_space_group_name_H-M_alt    "P 1"
_space_group_IT_number       1

loop_
  _space_group_symop_operation_xyz
  'x, y, z'

loop_
  _atom_site_type_symbol
  _atom_site_label
  _atom_site_symmetry_multiplicity
  _atom_site_fract_x
  _atom_site_fract_y
  _atom_site_fract_z
  _atom_site_occupancy
  Li  Li1       1.0  0.8991082352805915  0.733376315015775  0.8260434982148813  1.0000
  O   O1        1.0  0.09820276435976094  0.09485477411079302  0.7328909471374843  1.0000
  O   O2        1.0  0.6252880630662148  0.2004705313072055  0.31398688623521664  1.0000
  O   O3        1.0  0.07682825950828231  0.9912264625466491  0.021846485507424518  1.0000
  O   O4        1.0  0.9486076396451502  0.982683491044325  0.3562985538756154  1.0000
  O   O5        1.0  0.9247722575677741  0.9382082848546398  0.6470491860014747  1.0000
  O   O6        1.0  0.021105933819327127  0.738952192707302  0.9433252579914457  1.0000
  O   O7        1.0  0.5806088878744369  0.13757680357359092  0.5956045553248401  1.0000
  O   O8        1.0  0.033930600694525026  0.14140697401564495  0.8997528347390258  1.0000
