data_image0
_chemical_formula_structural       LiO8
_chemical_formula_sum              "Li1 O8"
_cell_length_a       5.249754507535302
_cell_length_b       5.413199314268996
_cell_length_c       5.41221408469246
_cell_angle_alpha    66.06793548132961
_cell_angle_beta     55.04984107024682
_cell_angle_gamma    55.053804050826955

_space_group_name_H-M_alt    "P 1"
_space_group_IT_number       1

loop_
  _space_group_symop_operation_xyz
  'x, y, z'

loop_
  _atom_site_type_symbol
  _atom_site_label
  _atom_site_symmetry_multiplicity
  _atom_site_fract_x
  _atom_site_fract_y
  _atom_site_fract_z
  _atom_site_occupancy
  Li  Li1       1.0  0.2298861303865003  0.7633210673652009  0.8066997928529668  1.0000
  O   O1        1.0  0.2223713905365976  0.7198079625942917  0.44996196602040683  1.0000
  O   O2        1.0  0.5857925608701109  0.6519440730163621  0.32408798550309115  1.0000
  O   O3        1.0  0.4739584097477021  0.2850542671845204  0.8349799553325923  1.0000
  O   O4        1.0  0.24406140516354036  0.4971364810569825  0.1680740453362629  1.0000
  O   O5        1.0  0.8168229262664539  0.9903535538597739  0.8428577780439621  1.0000
  O   O6        1.0  0.030309236845409024  0.06905616737636677  0.01638114916870137  1.0000
  O   O7        1.0  0.7239677648451774  0.980198121561159  0.8759351996998817  1.0000
  O   O8        1.0  0.31480424357616954  0.8856426483765887  0.9990742742264516  1.0000
