data_image0
_chemical_formula_structural       LiO8
_chemical_formula_sum              "Li1 O8"
_cell_length_a       5.249754507535302
_cell_length_b       5.413199314268996
_cell_length_c       5.41221408469246
_cell_angle_alpha    66.06793548132961
_cell_angle_beta     55.04984107024682
_cell_angle_gamma    55.053804050826955

_space_group_name_H-M_alt    "P 1"
_space_group_IT_number       1

loop_
  _space_group_symop_operation_xyz
  'x, y, z'

loop_
  _atom_site_type_symbol
  _atom_site_label
  _atom_site_symmetry_multiplicity
  _atom_site_fract_x
  _atom_site_fract_y
  _atom_site_fract_z
  _atom_site_occupancy
  Li  Li1       1.0  0.37478309887060846  0.5314506972219988  0.2469358151767409  1.0000
  O   O1        1.0  0.8506065730413148  0.5896048130561056  0.32930329013816717  1.0000
  O   O2        1.0  0.4255590157964626  0.7348069083455258  0.022656427210804964  1.0000
  O   O3        1.0  0.007993547235983556  0.8820100105416273  0.7656917928051428  1.0000
  O   O4        1.0  0.7749552072018986  0.24775396763052626  0.41134214449121487  1.0000
  O   O5        1.0  0.5459522910249319  0.23782126318501895  0.059756974779077154  1.0000
  O   O6        1.0  0.612328635326232  0.5936559304364266  0.5603197676256713  1.0000
  O   O7        1.0  0.597104763705012  0.19218134209324989  0.41355631403127724  1.0000
  O   O8        1.0  0.25216863552469704  0.16050447553881497  0.07591886468273223  1.0000
