data_image0
_chemical_formula_structural       LiO8
_chemical_formula_sum              "Li1 O8"
_cell_length_a       5.249754507535302
_cell_length_b       5.413199314268996
_cell_length_c       5.41221408469246
_cell_angle_alpha    66.06793548132961
_cell_angle_beta     55.04984107024682
_cell_angle_gamma    55.053804050826955

_space_group_name_H-M_alt    "P 1"
_space_group_IT_number       1

loop_
  _space_group_symop_operation_xyz
  'x, y, z'

loop_
  _atom_site_type_symbol
  _atom_site_label
  _atom_site_symmetry_multiplicity
  _atom_site_fract_x
  _atom_site_fract_y
  _atom_site_fract_z
  _atom_site_occupancy
  Li  Li1       1.0  0.6590880502439731  0.7049181203319872  0.07648504383044141  1.0000
  O   O1        1.0  0.44930653711228974  0.1164943320736107  0.07102863806547788  1.0000
  O   O2        1.0  0.9466867271597224  0.11378962614714894  0.7785972484687278  1.0000
  O   O3        1.0  0.7482566273384492  0.5585994003614871  0.9902780818848402  1.0000
  O   O4        1.0  0.7006328119545344  0.3048533412752841  0.9876355794462057  1.0000
  O   O5        1.0  0.6019938479692399  0.8337516470490662  0.650674333808329  1.0000
  O   O6        1.0  0.6107566737095773  0.0053539431133939885  0.05701263516380095  1.0000
  O   O7        1.0  0.41052905572206555  0.6781265343174319  0.36261410203425726  1.0000
  O   O8        1.0  0.11951435146914768  0.11399459902809461  0.4651289617584826  1.0000
