data_image0
_chemical_formula_structural       LiO8
_chemical_formula_sum              "Li1 O8"
_cell_length_a       5.249754507535302
_cell_length_b       5.413199314268996
_cell_length_c       5.41221408469246
_cell_angle_alpha    66.06793548132961
_cell_angle_beta     55.04984107024682
_cell_angle_gamma    55.053804050826955

_space_group_name_H-M_alt    "P 1"
_space_group_IT_number       1

loop_
  _space_group_symop_operation_xyz
  'x, y, z'

loop_
  _atom_site_type_symbol
  _atom_site_label
  _atom_site_symmetry_multiplicity
  _atom_site_fract_x
  _atom_site_fract_y
  _atom_site_fract_z
  _atom_site_occupancy
  Li  Li1       1.0  0.27226093486146397  0.7569730671693975  0.6650276216395241  1.0000
  O   O1        1.0  0.7629274056319986  0.27694774467136085  0.32896974209023533  1.0000
  O   O2        1.0  0.9209348587342694  0.9716140800701183  0.6382837044786598  1.0000
  O   O3        1.0  0.03213957498959985  0.9225124003456244  0.5338397447372358  1.0000
  O   O4        1.0  0.3375054699249258  0.3510278886739506  0.11929392366315028  1.0000
  O   O5        1.0  0.1036963079539106  0.44619798675459776  0.5201824240010531  1.0000
  O   O6        1.0  0.19989293159960653  0.524069894959311  0.831454835974494  1.0000
  O   O7        1.0  0.2760682704203461  0.7063798238043031  0.3716251618179811  1.0000
  O   O8        1.0  0.052675713646427536  0.06603940420845245  0.9900573622784563  1.0000
