data_image0
_chemical_formula_structural       LiO8
_chemical_formula_sum              "Li1 O8"
_cell_length_a       5.249754507535302
_cell_length_b       5.413199314268996
_cell_length_c       5.41221408469246
_cell_angle_alpha    66.06793548132961
_cell_angle_beta     55.04984107024682
_cell_angle_gamma    55.053804050826955

_space_group_name_H-M_alt    "P 1"
_space_group_IT_number       1

loop_
  _space_group_symop_operation_xyz
  'x, y, z'

loop_
  _atom_site_type_symbol
  _atom_site_label
  _atom_site_symmetry_multiplicity
  _atom_site_fract_x
  _atom_site_fract_y
  _atom_site_fract_z
  _atom_site_occupancy
  Li  Li1       1.0  0.1342119265099626  0.9580813470710048  0.8853731687198696  1.0000
  O   O1        1.0  0.8308309560294447  0.4423543033677504  0.8778947800571153  1.0000
  O   O2        1.0  0.5243990722275553  0.3300964155573549  0.28302072386515675  1.0000
  O   O3        1.0  0.8686847826703143  0.8992211858986252  0.09186943941244863  1.0000
  O   O4        1.0  0.7017426524810091  0.41045514184116705  0.04973645715972452  1.0000
  O   O5        1.0  0.5212521055545096  0.24452812544308955  0.4780571802210183  1.0000
  O   O6        1.0  0.5035930115774723  0.6732738111538623  0.7009041216631307  1.0000
  O   O7        1.0  0.08564640192410167  0.25585192378408017  0.9584387356785058  1.0000
  O   O8        1.0  0.19438460546892422  0.5011264703335208  0.834992623669546  1.0000
