data_image0
_chemical_formula_structural       LiO8
_chemical_formula_sum              "Li1 O8"
_cell_length_a       5.249754507535302
_cell_length_b       5.413199314268996
_cell_length_c       5.41221408469246
_cell_angle_alpha    66.06793548132961
_cell_angle_beta     55.04984107024682
_cell_angle_gamma    55.053804050826955

_space_group_name_H-M_alt    "P 1"
_space_group_IT_number       1

loop_
  _space_group_symop_operation_xyz
  'x, y, z'

loop_
  _atom_site_type_symbol
  _atom_site_label
  _atom_site_symmetry_multiplicity
  _atom_site_fract_x
  _atom_site_fract_y
  _atom_site_fract_z
  _atom_site_occupancy
  Li  Li1       1.0  0.1445028227646361  0.38443023965658085  0.44637025848677325  1.0000
  O   O1        1.0  0.9238654431849547  0.9175207566254961  0.9526708276669744  1.0000
  O   O2        1.0  0.951466166033395  0.2977820250065084  0.4340383793438676  1.0000
  O   O3        1.0  0.106188020417747  0.7925186464035932  0.1225390890464908  1.0000
  O   O4        1.0  0.9633884660783352  0.5096795901802302  0.6034904857017125  1.0000
  O   O5        1.0  0.5578139685403123  0.31289680921255325  0.31087261597023375  1.0000
  O   O6        1.0  0.1645951063059421  0.9884197137388337  0.16595150785022383  1.0000
  O   O7        1.0  0.23361821338913558  0.7957830196665157  0.9629334840221162  1.0000
  O   O8        1.0  0.8827676331652476  0.14912236076168028  0.6144422671494851  1.0000
