data_image0
_chemical_formula_structural       LiO8
_chemical_formula_sum              "Li1 O8"
_cell_length_a       5.249754507535302
_cell_length_b       5.413199314268996
_cell_length_c       5.41221408469246
_cell_angle_alpha    66.06793548132961
_cell_angle_beta     55.04984107024682
_cell_angle_gamma    55.053804050826955

_space_group_name_H-M_alt    "P 1"
_space_group_IT_number       1

loop_
  _space_group_symop_operation_xyz
  'x, y, z'

loop_
  _atom_site_type_symbol
  _atom_site_label
  _atom_site_symmetry_multiplicity
  _atom_site_fract_x
  _atom_site_fract_y
  _atom_site_fract_z
  _atom_site_occupancy
  Li  Li1       1.0  0.3804127208063903  0.5617653465229111  0.19320536765891916  1.0000
  O   O1        1.0  0.8832176196143564  0.8098797448625703  0.7663656643722039  1.0000
  O   O2        1.0  0.32654305197871203  0.6482153904666177  0.044323080882357146  1.0000
  O   O3        1.0  0.8397687328864407  0.0500596078980351  0.18877628470369245  1.0000
  O   O4        1.0  0.31267903219438153  0.9264633405444016  0.31352276477429086  1.0000
  O   O5        1.0  0.3600861850832757  0.7996430777384553  0.7649436955372337  1.0000
  O   O6        1.0  0.8747619188843085  0.04042056130816718  0.7696189871187755  1.0000
  O   O7        1.0  0.04942899380070642  0.3913984107189461  0.16767082295317692  1.0000
  O   O8        1.0  0.19396520738687073  0.08894193207599344  0.15918099308423228  1.0000
