data_image0
_chemical_formula_structural       LiO8
_chemical_formula_sum              "Li1 O8"
_cell_length_a       5.249754507535302
_cell_length_b       5.413199314268996
_cell_length_c       5.41221408469246
_cell_angle_alpha    66.06793548132961
_cell_angle_beta     55.04984107024682
_cell_angle_gamma    55.053804050826955

_space_group_name_H-M_alt    "P 1"
_space_group_IT_number       1

loop_
  _space_group_symop_operation_xyz
  'x, y, z'

loop_
  _atom_site_type_symbol
  _atom_site_label
  _atom_site_symmetry_multiplicity
  _atom_site_fract_x
  _atom_site_fract_y
  _atom_site_fract_z
  _atom_site_occupancy
  Li  Li1       1.0  0.5819679519243408  0.6234835108093186  0.3913035476068316  1.0000
  O   O1        1.0  0.6385061716556706  0.9359836732434417  0.5219436114508103  1.0000
  O   O2        1.0  0.37721793907111056  0.562198337349944  0.4615456295927842  1.0000
  O   O3        1.0  0.2736703401833296  0.4377713205988769  0.7849541020088964  1.0000
  O   O4        1.0  0.6389494689678763  0.5160566783226894  0.2866470114243782  1.0000
  O   O5        1.0  0.28476072300414046  0.18657351873453365  0.16118694981398107  1.0000
  O   O6        1.0  0.7481668739107179  0.2837634828417528  0.5324752714630097  1.0000
  O   O7        1.0  0.08798775262869185  0.5952132250132744  0.22471331279060536  1.0000
  O   O8        1.0  0.48395962460233344  0.2792582101239631  0.9468494608514932  1.0000
