data_image0
_chemical_formula_structural       LiO8
_chemical_formula_sum              "Li1 O8"
_cell_length_a       5.249754507535302
_cell_length_b       5.413199314268996
_cell_length_c       5.41221408469246
_cell_angle_alpha    66.06793548132961
_cell_angle_beta     55.04984107024682
_cell_angle_gamma    55.053804050826955

_space_group_name_H-M_alt    "P 1"
_space_group_IT_number       1

loop_
  _space_group_symop_operation_xyz
  'x, y, z'

loop_
  _atom_site_type_symbol
  _atom_site_label
  _atom_site_symmetry_multiplicity
  _atom_site_fract_x
  _atom_site_fract_y
  _atom_site_fract_z
  _atom_site_occupancy
  Li  Li1       1.0  0.43358407442460134  0.09722044140428032  0.6087578329196575  1.0000
  O   O1        1.0  0.12598643068823545  0.8374024272075644  0.9077210951585002  1.0000
  O   O2        1.0  0.01740715133518478  0.2229854923691832  0.7366714602825972  1.0000
  O   O3        1.0  0.5826522743220721  0.8577281839713251  0.566237090511537  1.0000
  O   O4        1.0  0.43819865522317514  0.44838813539617384  0.07711925740501613  1.0000
  O   O5        1.0  0.7976003080277483  0.02474529132220482  0.217726202085732  1.0000
  O   O6        1.0  0.7906224925039425  0.2685587265441889  0.8771902539013627  1.0000
  O   O7        1.0  0.16259184857776887  0.24493495314575497  0.9653131767437344  1.0000
  O   O8        1.0  0.32162659227238377  0.8336469145619005  0.2591099996572872  1.0000
