data_image0
_chemical_formula_structural       LiO8
_chemical_formula_sum              "Li1 O8"
_cell_length_a       5.249754507535302
_cell_length_b       5.413199314268996
_cell_length_c       5.41221408469246
_cell_angle_alpha    66.06793548132961
_cell_angle_beta     55.04984107024682
_cell_angle_gamma    55.053804050826955

_space_group_name_H-M_alt    "P 1"
_space_group_IT_number       1

loop_
  _space_group_symop_operation_xyz
  'x, y, z'

loop_
  _atom_site_type_symbol
  _atom_site_label
  _atom_site_symmetry_multiplicity
  _atom_site_fract_x
  _atom_site_fract_y
  _atom_site_fract_z
  _atom_site_occupancy
  Li  Li1       1.0  0.9959614528060072  0.9141255351292727  0.8034162367406523  1.0000
  O   O1        1.0  0.5161760843601542  0.44811609262472274  0.622710026668301  1.0000
  O   O2        1.0  0.7188019329750723  0.2000174915531332  0.4648748296688119  1.0000
  O   O3        1.0  0.5378028788398908  0.41577313745217737  0.9839660390092675  1.0000
  O   O4        1.0  0.13113282314358798  0.9282258891368187  0.5985371400061936  1.0000
  O   O5        1.0  0.8968458549327938  0.4651422686450424  0.9995193501104693  1.0000
  O   O6        1.0  0.6038853174399073  0.853213983077513  0.706492653649125  1.0000
  O   O7        1.0  0.13269556056000908  0.03457001935384696  0.07068002766628467  1.0000
  O   O8        1.0  0.067762586875169  0.03220884852778738  0.398464471825573  1.0000
