data_image0
_chemical_formula_structural       LiO8
_chemical_formula_sum              "Li1 O8"
_cell_length_a       5.249754507535302
_cell_length_b       5.413199314268996
_cell_length_c       5.41221408469246
_cell_angle_alpha    66.06793548132961
_cell_angle_beta     55.04984107024682
_cell_angle_gamma    55.053804050826955

_space_group_name_H-M_alt    "P 1"
_space_group_IT_number       1

loop_
  _space_group_symop_operation_xyz
  'x, y, z'

loop_
  _atom_site_type_symbol
  _atom_site_label
  _atom_site_symmetry_multiplicity
  _atom_site_fract_x
  _atom_site_fract_y
  _atom_site_fract_z
  _atom_site_occupancy
  Li  Li1       1.0  0.4509556473226155  0.3408821432768354  0.2125513715160423  1.0000
  O   O1        1.0  0.04925623629813049  0.14582745612866432  0.19233333049561452  1.0000
  O   O2        1.0  0.6790451184044102  0.16553267712731312  0.7331042704455157  1.0000
  O   O3        1.0  0.3920246349894825  0.776308473748692  0.42896253659669487  1.0000
  O   O4        1.0  0.13626466152877725  0.593221589546781  0.7705055674892405  1.0000
  O   O5        1.0  0.07309931418663496  0.6955398829871058  0.6454974549972228  1.0000
  O   O6        1.0  0.38097405827342357  0.532629288719761  0.5954072315705776  1.0000
  O   O7        1.0  0.3622995750965572  0.3323139767349801  0.20559677970182122  1.0000
  O   O8        1.0  0.9420152839171463  0.18345910551202582  0.38994910248275616  1.0000
