data_image0
_chemical_formula_structural       LiO8
_chemical_formula_sum              "Li1 O8"
_cell_length_a       5.249754507535302
_cell_length_b       5.413199314268996
_cell_length_c       5.41221408469246
_cell_angle_alpha    66.06793548132961
_cell_angle_beta     55.04984107024682
_cell_angle_gamma    55.053804050826955

_space_group_name_H-M_alt    "P 1"
_space_group_IT_number       1

loop_
  _space_group_symop_operation_xyz
  'x, y, z'

loop_
  _atom_site_type_symbol
  _atom_site_label
  _atom_site_symmetry_multiplicity
  _atom_site_fract_x
  _atom_site_fract_y
  _atom_site_fract_z
  _atom_site_occupancy
  Li  Li1       1.0  0.9647613643474529  0.5030065617456927  0.8099317404086293  1.0000
  O   O1        1.0  0.7988832619915271  0.8570495547693753  0.5280596319424986  1.0000
  O   O2        1.0  0.7516004534696101  0.05877070104158477  0.1778811652803114  1.0000
  O   O3        1.0  0.9602357174262437  0.7218748840490647  0.8597900032430275  1.0000
  O   O4        1.0  0.44541052751667465  0.7275365323730902  0.09961190919099039  1.0000
  O   O5        1.0  0.9412599259288044  0.46766476449313643  0.25214877258935076  1.0000
  O   O6        1.0  0.9852166832744507  0.8309684919667788  0.55751427312914  1.0000
  O   O7        1.0  0.678055753551142  0.24623824059402466  0.4546543849177169  1.0000
  O   O8        1.0  0.49315694832164114  0.7179951934514879  0.8901660875000417  1.0000
