data_image0
_chemical_formula_structural       LiO8
_chemical_formula_sum              "Li1 O8"
_cell_length_a       5.249754507535302
_cell_length_b       5.413199314268996
_cell_length_c       5.41221408469246
_cell_angle_alpha    66.06793548132961
_cell_angle_beta     55.04984107024682
_cell_angle_gamma    55.053804050826955

_space_group_name_H-M_alt    "P 1"
_space_group_IT_number       1

loop_
  _space_group_symop_operation_xyz
  'x, y, z'

loop_
  _atom_site_type_symbol
  _atom_site_label
  _atom_site_symmetry_multiplicity
  _atom_site_fract_x
  _atom_site_fract_y
  _atom_site_fract_z
  _atom_site_occupancy
  Li  Li1       1.0  0.32833980837097876  0.5444120413146258  0.22021447258458204  1.0000
  O   O1        1.0  0.7847315290011823  0.3372073427943896  0.38396709151027864  1.0000
  O   O2        1.0  0.957181986312424  0.6068799306540145  0.054626655118998  1.0000
  O   O3        1.0  0.7995295280950998  0.4415434840026293  0.9577122599454597  1.0000
  O   O4        1.0  0.224785124001194  0.5012058549685241  0.6410713247032511  1.0000
  O   O5        1.0  0.09961348295149719  0.47150374426531094  0.7805725274583608  1.0000
  O   O6        1.0  0.4806882542488271  0.8154161810429947  0.4388467145941348  1.0000
  O   O7        1.0  0.5970962514955716  0.8303644849079195  0.8956419447991557  1.0000
  O   O8        1.0  0.38038817946135595  0.037167112759213694  0.7465754452605822  1.0000
