data_image0
_chemical_formula_structural       LiO8
_chemical_formula_sum              "Li1 O8"
_cell_length_a       5.249754507535302
_cell_length_b       5.413199314268996
_cell_length_c       5.41221408469246
_cell_angle_alpha    66.06793548132961
_cell_angle_beta     55.04984107024682
_cell_angle_gamma    55.053804050826955

_space_group_name_H-M_alt    "P 1"
_space_group_IT_number       1

loop_
  _space_group_symop_operation_xyz
  'x, y, z'

loop_
  _atom_site_type_symbol
  _atom_site_label
  _atom_site_symmetry_multiplicity
  _atom_site_fract_x
  _atom_site_fract_y
  _atom_site_fract_z
  _atom_site_occupancy
  Li  Li1       1.0  0.9920445256501651  0.8398982517190814  0.29308544254084623  1.0000
  O   O1        1.0  0.23487059224483858  0.5450947177399481  0.5913754977229431  1.0000
  O   O2        1.0  0.5788082054117893  0.4837602287459326  0.3058746882322225  1.0000
  O   O3        1.0  0.1887140322746248  0.05710540863763924  0.33326064310767256  1.0000
  O   O4        1.0  0.24933882702827503  0.5638443581586641  0.20650847207601952  1.0000
  O   O5        1.0  0.374147719785066  0.5002952860729692  0.5702445493308304  1.0000
  O   O6        1.0  0.33441857531543207  0.08826064388559018  0.02118746945652461  1.0000
  O   O7        1.0  0.694992687171549  0.05378172753639987  0.6214513570811846  1.0000
  O   O8        1.0  0.564383268839336  0.6204741892382533  0.7271838521810459  1.0000
