data_image0
_chemical_formula_structural       LiO8
_chemical_formula_sum              "Li1 O8"
_cell_length_a       5.249754507535302
_cell_length_b       5.413199314268996
_cell_length_c       5.41221408469246
_cell_angle_alpha    66.06793548132961
_cell_angle_beta     55.04984107024682
_cell_angle_gamma    55.053804050826955

_space_group_name_H-M_alt    "P 1"
_space_group_IT_number       1

loop_
  _space_group_symop_operation_xyz
  'x, y, z'

loop_
  _atom_site_type_symbol
  _atom_site_label
  _atom_site_symmetry_multiplicity
  _atom_site_fract_x
  _atom_site_fract_y
  _atom_site_fract_z
  _atom_site_occupancy
  Li  Li1       1.0  0.3064357400008433  0.6307217816763995  0.31241492441737506  1.0000
  O   O1        1.0  0.5694021074367779  0.33260671025026056  0.9764549571909207  1.0000
  O   O2        1.0  0.8412894575086015  0.9329707960582585  0.06107318167615361  1.0000
  O   O3        1.0  0.8128576851923128  0.9050203327157931  0.8275394678109791  1.0000
  O   O4        1.0  0.17869304225993687  0.791176562588042  0.7309361839628572  1.0000
  O   O5        1.0  0.7267187510311492  0.9450823819130001  0.22307903122293204  1.0000
  O   O6        1.0  0.06885239785986563  0.6095865129591553  0.8184986561905561  1.0000
  O   O7        1.0  0.023856043872314103  0.6035139474383584  0.8627771856728828  1.0000
  O   O8        1.0  0.17055941468910163  0.49289469689033183  0.7627545107891063  1.0000
