data_image0
_chemical_formula_structural       LiO8
_chemical_formula_sum              "Li1 O8"
_cell_length_a       5.249754507535302
_cell_length_b       5.413199314268996
_cell_length_c       5.41221408469246
_cell_angle_alpha    66.06793548132961
_cell_angle_beta     55.04984107024682
_cell_angle_gamma    55.053804050826955

_space_group_name_H-M_alt    "P 1"
_space_group_IT_number       1

loop_
  _space_group_symop_operation_xyz
  'x, y, z'

loop_
  _atom_site_type_symbol
  _atom_site_label
  _atom_site_symmetry_multiplicity
  _atom_site_fract_x
  _atom_site_fract_y
  _atom_site_fract_z
  _atom_site_occupancy
  Li  Li1       1.0  0.31458392165001214  0.9702956279960091  0.7782914814798012  1.0000
  O   O1        1.0  0.333740679635097  0.5659292969175542  0.6427739006959712  1.0000
  O   O2        1.0  0.9830169088167935  0.7147211032735186  0.22289662529130183  1.0000
  O   O3        1.0  0.13419733770599862  0.6610178857014546  0.17531767661495046  1.0000
  O   O4        1.0  0.39403957810199053  0.28763032650511633  0.8113320381053422  1.0000
  O   O5        1.0  0.936416530129236  0.010661692554199576  0.8573512065382314  1.0000
  O   O6        1.0  0.7145143721833853  0.7911637160756033  0.10673552080795679  1.0000
  O   O7        1.0  0.7452493533690827  0.10701569690212764  0.7070320089948865  1.0000
  O   O8        1.0  0.9535501024903699  0.4922961934362453  0.8170798569664086  1.0000
