data_image0
_chemical_formula_structural       LiO8
_chemical_formula_sum              "Li1 O8"
_cell_length_a       5.249754507535302
_cell_length_b       5.413199314268996
_cell_length_c       5.41221408469246
_cell_angle_alpha    66.06793548132961
_cell_angle_beta     55.04984107024682
_cell_angle_gamma    55.053804050826955

_space_group_name_H-M_alt    "P 1"
_space_group_IT_number       1

loop_
  _space_group_symop_operation_xyz
  'x, y, z'

loop_
  _atom_site_type_symbol
  _atom_site_label
  _atom_site_symmetry_multiplicity
  _atom_site_fract_x
  _atom_site_fract_y
  _atom_site_fract_z
  _atom_site_occupancy
  Li  Li1       1.0  0.6801515991841569  0.7315047640555576  0.7808297061481184  1.0000
  O   O1        1.0  0.22910988493687867  0.43521010383852143  0.18745513191185825  1.0000
  O   O2        1.0  0.22426347656842616  0.48002938935233175  0.9782374039003088  1.0000
  O   O3        1.0  0.8108732548219564  0.29898023203419655  0.3450545594993031  1.0000
  O   O4        1.0  0.3852195957257898  0.6621272498463249  0.924628690215826  1.0000
  O   O5        1.0  0.2991428531553737  0.9850505520238855  0.8507029945990325  1.0000
  O   O6        1.0  0.9718804770263736  0.9363714478451186  0.41139921799614854  1.0000
  O   O7        1.0  0.19973450424494743  0.7391922396922963  0.7974862667559073  1.0000
  O   O8        1.0  0.5674721853704217  0.8961112588970828  0.3378986725030826  1.0000
