data_image0
_chemical_formula_structural       LiO8
_chemical_formula_sum              "Li1 O8"
_cell_length_a       5.249754507535302
_cell_length_b       5.413199314268996
_cell_length_c       5.41221408469246
_cell_angle_alpha    66.06793548132961
_cell_angle_beta     55.04984107024682
_cell_angle_gamma    55.053804050826955

_space_group_name_H-M_alt    "P 1"
_space_group_IT_number       1

loop_
  _space_group_symop_operation_xyz
  'x, y, z'

loop_
  _atom_site_type_symbol
  _atom_site_label
  _atom_site_symmetry_multiplicity
  _atom_site_fract_x
  _atom_site_fract_y
  _atom_site_fract_z
  _atom_site_occupancy
  Li  Li1       1.0  0.09382189274786867  0.321277280310845  0.6671447237250447  1.0000
  O   O1        1.0  0.11481328621047737  0.7793306683291057  0.12591453939741726  1.0000
  O   O2        1.0  0.5367450352962813  0.9888521986390693  0.8731105247259219  1.0000
  O   O3        1.0  0.1898010403523358  0.3123185245767104  0.3680420106614193  1.0000
  O   O4        1.0  0.452861295101898  0.9901310963452712  0.0032091481180032133  1.0000
  O   O5        1.0  0.26318020994786195  0.9666861644384301  0.7172270072185642  1.0000
  O   O6        1.0  0.5590523202267477  0.2042579932966131  0.2927220836418307  1.0000
  O   O7        1.0  0.9693098831293412  0.9163174927012534  0.3639865666191042  1.0000
  O   O8        1.0  0.16216139704138754  0.23743816524226347  0.8007552353391034  1.0000
