data_image0
_chemical_formula_structural       LiO8
_chemical_formula_sum              "Li1 O8"
_cell_length_a       5.249754507535302
_cell_length_b       5.413199314268996
_cell_length_c       5.41221408469246
_cell_angle_alpha    66.06793548132961
_cell_angle_beta     55.04984107024682
_cell_angle_gamma    55.053804050826955

_space_group_name_H-M_alt    "P 1"
_space_group_IT_number       1

loop_
  _space_group_symop_operation_xyz
  'x, y, z'

loop_
  _atom_site_type_symbol
  _atom_site_label
  _atom_site_symmetry_multiplicity
  _atom_site_fract_x
  _atom_site_fract_y
  _atom_site_fract_z
  _atom_site_occupancy
  Li  Li1       1.0  0.8609444623716609  0.4482771010586859  0.152185982441722  1.0000
  O   O1        1.0  0.43811644700781605  0.3557222422224138  0.7101584298671888  1.0000
  O   O2        1.0  0.3945159558909417  0.33379815229510257  0.11630115262764562  1.0000
  O   O3        1.0  0.29092059968474526  0.7344450071247088  0.0447444647564037  1.0000
  O   O4        1.0  0.6513993646669185  0.6246059854350996  0.5683942555482879  1.0000
  O   O5        1.0  0.4444525545728908  0.2554209662470699  0.04006310391719836  1.0000
  O   O6        1.0  0.9196898007438037  0.4681782648556201  0.6593783847667432  1.0000
  O   O7        1.0  0.21400236519301963  0.14271565384597906  0.9208300880458076  1.0000
  O   O8        1.0  0.6584675358699705  0.22188764635707514  0.040815954155172696  1.0000
