data_image0
_chemical_formula_structural       LiO8
_chemical_formula_sum              "Li1 O8"
_cell_length_a       5.249754507535302
_cell_length_b       5.413199314268996
_cell_length_c       5.41221408469246
_cell_angle_alpha    66.06793548132961
_cell_angle_beta     55.04984107024682
_cell_angle_gamma    55.053804050826955

_space_group_name_H-M_alt    "P 1"
_space_group_IT_number       1

loop_
  _space_group_symop_operation_xyz
  'x, y, z'

loop_
  _atom_site_type_symbol
  _atom_site_label
  _atom_site_symmetry_multiplicity
  _atom_site_fract_x
  _atom_site_fract_y
  _atom_site_fract_z
  _atom_site_occupancy
  Li  Li1       1.0  0.12222214918645591  0.8204902512245447  0.24339789418186086  1.0000
  O   O1        1.0  0.5716976212715039  0.048793073589834535  0.5547596235803498  1.0000
  O   O2        1.0  0.579773722208385  0.06117458349145055  0.8462920922525292  1.0000
  O   O3        1.0  0.49555213580281077  0.23408426123618398  0.014281190841678892  1.0000
  O   O4        1.0  0.8438723532746835  0.9656010081619328  0.06171784113779211  1.0000
  O   O5        1.0  0.07784437696092539  0.5707688884787991  0.04895277150779265  1.0000
  O   O6        1.0  0.5755153237603885  0.02487062955682262  0.28775954279969795  1.0000
  O   O7        1.0  0.2825581160647985  0.1486896189219813  0.3895712895213421  1.0000
  O   O8        1.0  0.2390306105945026  0.488736188005225  0.7251485768342052  1.0000
