data_image0
_chemical_formula_structural       LiO8
_chemical_formula_sum              "Li1 O8"
_cell_length_a       5.249754507535302
_cell_length_b       5.413199314268996
_cell_length_c       5.41221408469246
_cell_angle_alpha    66.06793548132961
_cell_angle_beta     55.04984107024682
_cell_angle_gamma    55.053804050826955

_space_group_name_H-M_alt    "P 1"
_space_group_IT_number       1

loop_
  _space_group_symop_operation_xyz
  'x, y, z'

loop_
  _atom_site_type_symbol
  _atom_site_label
  _atom_site_symmetry_multiplicity
  _atom_site_fract_x
  _atom_site_fract_y
  _atom_site_fract_z
  _atom_site_occupancy
  Li  Li1       1.0  0.5362998935971177  0.6621842988229574  0.9557461560998775  1.0000
  O   O1        1.0  0.23612485272381178  0.39655572510370973  0.22805036994939698  1.0000
  O   O2        1.0  0.4461703888095383  0.8657189344252711  0.5462443233506669  1.0000
  O   O3        1.0  0.6952908253749612  0.8783347029873312  0.14442476903115775  1.0000
  O   O4        1.0  0.5959501477522977  0.2202922788895627  0.3528151279430496  1.0000
  O   O5        1.0  0.7104153088283596  0.41387517380502103  0.2335142152398797  1.0000
  O   O6        1.0  0.8151771878930525  0.8205951106934402  0.18206009599237305  1.0000
  O   O7        1.0  0.9244829482650374  0.9947790767253757  0.018102557912854422  1.0000
  O   O8        1.0  0.7451027640507633  0.06177354135682833  0.6488886621951018  1.0000
