data_image0
_chemical_formula_structural       LiO8
_chemical_formula_sum              "Li1 O8"
_cell_length_a       5.249754507535302
_cell_length_b       5.413199314268996
_cell_length_c       5.41221408469246
_cell_angle_alpha    66.06793548132961
_cell_angle_beta     55.04984107024682
_cell_angle_gamma    55.053804050826955

_space_group_name_H-M_alt    "P 1"
_space_group_IT_number       1

loop_
  _space_group_symop_operation_xyz
  'x, y, z'

loop_
  _atom_site_type_symbol
  _atom_site_label
  _atom_site_symmetry_multiplicity
  _atom_site_fract_x
  _atom_site_fract_y
  _atom_site_fract_z
  _atom_site_occupancy
  Li  Li1       1.0  0.5553967579552523  0.9652620809142043  0.23038953840793397  1.0000
  O   O1        1.0  0.06826338480296129  0.044105946036534505  0.6070067396785479  1.0000
  O   O2        1.0  0.258641679635808  0.8983910205135173  0.7686598176326349  1.0000
  O   O3        1.0  0.07360475830473234  0.8359363992757096  0.809683880204414  1.0000
  O   O4        1.0  0.4843097052413796  0.4000320095746144  0.2296085847207685  1.0000
  O   O5        1.0  0.311580307490793  0.3420460609212683  0.866287494891246  1.0000
  O   O6        1.0  0.24530146068521752  0.5651891569343803  0.30214877989900435  1.0000
  O   O7        1.0  0.866562851152576  0.0709822374055129  0.5751346667758028  1.0000
  O   O8        1.0  0.6046187790498863  0.2765366926160553  0.3148179705548948  1.0000
