data_image0
_chemical_formula_structural       LiO8
_chemical_formula_sum              "Li1 O8"
_cell_length_a       5.249754507535302
_cell_length_b       5.413199314268996
_cell_length_c       5.41221408469246
_cell_angle_alpha    66.06793548132961
_cell_angle_beta     55.04984107024682
_cell_angle_gamma    55.053804050826955

_space_group_name_H-M_alt    "P 1"
_space_group_IT_number       1

loop_
  _space_group_symop_operation_xyz
  'x, y, z'

loop_
  _atom_site_type_symbol
  _atom_site_label
  _atom_site_symmetry_multiplicity
  _atom_site_fract_x
  _atom_site_fract_y
  _atom_site_fract_z
  _atom_site_occupancy
  Li  Li1       1.0  0.8281637776726711  0.5740759089876928  0.9315386478420322  1.0000
  O   O1        1.0  0.7381683929976397  0.05949896756497708  0.8679428451793143  1.0000
  O   O2        1.0  0.9166629328301172  0.15384312004616163  0.44473909568276326  1.0000
  O   O3        1.0  0.6114357316437804  0.32075311243515614  0.23375419166367806  1.0000
  O   O4        1.0  0.017407823667205946  0.6997440662812515  0.710408989045078  1.0000
  O   O5        1.0  0.269079154329404  0.5504870222792704  0.6297872556295587  1.0000
  O   O6        1.0  0.760853311860302  0.9473299399203512  0.1306327641093077  1.0000
  O   O7        1.0  0.2357836765077579  0.7922974975294608  0.1942339841735361  1.0000
  O   O8        1.0  0.9864853652759553  0.9354259747147289  0.6594173077663648  1.0000
