data_image0
_chemical_formula_structural       LiO8
_chemical_formula_sum              "Li1 O8"
_cell_length_a       5.249754507535302
_cell_length_b       5.413199314268996
_cell_length_c       5.41221408469246
_cell_angle_alpha    66.06793548132961
_cell_angle_beta     55.04984107024682
_cell_angle_gamma    55.053804050826955

_space_group_name_H-M_alt    "P 1"
_space_group_IT_number       1

loop_
  _space_group_symop_operation_xyz
  'x, y, z'

loop_
  _atom_site_type_symbol
  _atom_site_label
  _atom_site_symmetry_multiplicity
  _atom_site_fract_x
  _atom_site_fract_y
  _atom_site_fract_z
  _atom_site_occupancy
  Li  Li1       1.0  0.7026378989198108  0.2229057243860808  0.20697812435292207  1.0000
  O   O1        1.0  0.955353829490889  0.908908799663438  0.05442604960264674  1.0000
  O   O2        1.0  0.2444965875051608  0.00756228926481306  0.3166694979025664  1.0000
  O   O3        1.0  0.1836171561743427  0.5026438467535215  0.63082189893343  1.0000
  O   O4        1.0  0.10986084941764673  0.034977025805892126  0.2680086173856573  1.0000
  O   O5        1.0  0.04853263402562913  0.06205572834099371  0.8825941709529541  1.0000
  O   O6        1.0  0.14824515495668997  0.29950833458129367  0.7187869952135157  1.0000
  O   O7        1.0  0.015379625055928159  0.7582019703444267  0.08764264211835382  1.0000
  O   O8        1.0  0.8843478060186456  0.9065241089940201  0.6755430582750446  1.0000
