data_image0
_chemical_formula_structural       LiO8
_chemical_formula_sum              "Li1 O8"
_cell_length_a       5.249754507535302
_cell_length_b       5.413199314268996
_cell_length_c       5.41221408469246
_cell_angle_alpha    66.06793548132961
_cell_angle_beta     55.04984107024682
_cell_angle_gamma    55.053804050826955

_space_group_name_H-M_alt    "P 1"
_space_group_IT_number       1

loop_
  _space_group_symop_operation_xyz
  'x, y, z'

loop_
  _atom_site_type_symbol
  _atom_site_label
  _atom_site_symmetry_multiplicity
  _atom_site_fract_x
  _atom_site_fract_y
  _atom_site_fract_z
  _atom_site_occupancy
  Li  Li1       1.0  0.5925648793337928  0.7777780678456878  0.3882001332674463  1.0000
  O   O1        1.0  0.8688389491120816  0.9086450609958725  0.9606710550318951  1.0000
  O   O2        1.0  0.8310575092992726  0.19258029563441426  0.30016918594378694  1.0000
  O   O3        1.0  0.46051882725031135  0.9708094463029929  0.3643285044912936  1.0000
  O   O4        1.0  0.708170021518427  0.7018710143350013  0.8177548437266751  1.0000
  O   O5        1.0  0.40908900148183136  0.2466732166562693  0.550365192766094  1.0000
  O   O6        1.0  0.9955394326014595  0.022859309176240572  0.4985138359691419  1.0000
  O   O7        1.0  0.3984052031222234  0.47469483839991966  0.6460759419244972  1.0000
  O   O8        1.0  0.3670722195521776  0.524440260270211  0.7733114443363043  1.0000
