data_image0
_chemical_formula_structural       LiO8
_chemical_formula_sum              "Li1 O8"
_cell_length_a       5.249754507535302
_cell_length_b       5.413199314268996
_cell_length_c       5.41221408469246
_cell_angle_alpha    66.06793548132961
_cell_angle_beta     55.04984107024682
_cell_angle_gamma    55.053804050826955

_space_group_name_H-M_alt    "P 1"
_space_group_IT_number       1

loop_
  _space_group_symop_operation_xyz
  'x, y, z'

loop_
  _atom_site_type_symbol
  _atom_site_label
  _atom_site_symmetry_multiplicity
  _atom_site_fract_x
  _atom_site_fract_y
  _atom_site_fract_z
  _atom_site_occupancy
  Li  Li1       1.0  0.017872857392909225  0.42906201714679426  0.05724609266335179  1.0000
  O   O1        1.0  0.9704452472033684  0.6775731042405937  0.6843819032117011  1.0000
  O   O2        1.0  0.3841849924155838  0.19482507234568658  0.7077583703423755  1.0000
  O   O3        1.0  0.9482619085148585  0.9719045301099882  0.3741193362531474  1.0000
  O   O4        1.0  0.310499463705753  0.4765044664665896  0.3708677620311942  1.0000
  O   O5        1.0  0.9233815955898539  0.12797114561917056  0.6226674068917113  1.0000
  O   O6        1.0  0.4879627790119727  0.9939047634566727  0.6935502438065271  1.0000
  O   O7        1.0  0.7452734940484831  0.39733469443128655  0.48492296681574487  1.0000
  O   O8        1.0  0.29461941887921483  0.7391753417616052  0.42640304658623585  1.0000
