data_image0
_chemical_formula_structural       LiO8
_chemical_formula_sum              "Li1 O8"
_cell_length_a       5.249754507535302
_cell_length_b       5.413199314268996
_cell_length_c       5.41221408469246
_cell_angle_alpha    66.06793548132961
_cell_angle_beta     55.04984107024682
_cell_angle_gamma    55.053804050826955

_space_group_name_H-M_alt    "P 1"
_space_group_IT_number       1

loop_
  _space_group_symop_operation_xyz
  'x, y, z'

loop_
  _atom_site_type_symbol
  _atom_site_label
  _atom_site_symmetry_multiplicity
  _atom_site_fract_x
  _atom_site_fract_y
  _atom_site_fract_z
  _atom_site_occupancy
  Li  Li1       1.0  0.5694395951526872  0.4927269519765787  0.07988623068852974  1.0000
  O   O1        1.0  0.9769539366557183  0.19425834087437455  0.22673326914153336  1.0000
  O   O2        1.0  0.7724711958514264  0.07230503416542433  0.32178600799758783  1.0000
  O   O3        1.0  0.2763934993325705  0.5969853131495906  0.8781165578556305  1.0000
  O   O4        1.0  0.34876458289924983  0.3973049458940281  0.43440144336176445  1.0000
  O   O5        1.0  0.002373647630278697  0.6572903362481775  0.3621588929658941  1.0000
  O   O6        1.0  0.732100976059284  0.8580312210316485  0.6469485020791801  1.0000
  O   O7        1.0  0.7836262051680034  0.765931216097151  0.8553671107718799  1.0000
  O   O8        1.0  0.17452296009352608  0.6290028490159898  0.7221979892956938  1.0000
