data_image0
_chemical_formula_structural       LiO8
_chemical_formula_sum              "Li1 O8"
_cell_length_a       5.249754507535302
_cell_length_b       5.413199314268996
_cell_length_c       5.41221408469246
_cell_angle_alpha    66.06793548132961
_cell_angle_beta     55.04984107024682
_cell_angle_gamma    55.053804050826955

_space_group_name_H-M_alt    "P 1"
_space_group_IT_number       1

loop_
  _space_group_symop_operation_xyz
  'x, y, z'

loop_
  _atom_site_type_symbol
  _atom_site_label
  _atom_site_symmetry_multiplicity
  _atom_site_fract_x
  _atom_site_fract_y
  _atom_site_fract_z
  _atom_site_occupancy
  Li  Li1       1.0  0.8810867191876568  0.5620944968338648  0.33490784644020266  1.0000
  O   O1        1.0  0.7240936400457194  0.5098770058579536  0.9161919417127073  1.0000
  O   O2        1.0  0.06223715384752168  0.2976192843102101  0.3197842834889748  1.0000
  O   O3        1.0  0.7414517498573332  0.21969280992783524  0.6714356765349088  1.0000
  O   O4        1.0  0.5546082456173593  0.1903859064813851  0.12681880955448932  1.0000
  O   O5        1.0  0.07762066975014648  0.6843180697411668  0.2296802125273003  1.0000
  O   O6        1.0  0.9336526338106985  0.7500382719292951  0.3143207847019056  1.0000
  O   O7        1.0  0.3392233038946131  0.11196392041625458  0.0907054043000528  1.0000
  O   O8        1.0  0.031153942422982084  0.501615945657381  0.36933128218050015  1.0000
