data_image0
_chemical_formula_structural       LiO8
_chemical_formula_sum              "Li1 O8"
_cell_length_a       5.249754507535302
_cell_length_b       5.413199314268996
_cell_length_c       5.41221408469246
_cell_angle_alpha    66.06793548132961
_cell_angle_beta     55.04984107024682
_cell_angle_gamma    55.053804050826955

_space_group_name_H-M_alt    "P 1"
_space_group_IT_number       1

loop_
  _space_group_symop_operation_xyz
  'x, y, z'

loop_
  _atom_site_type_symbol
  _atom_site_label
  _atom_site_symmetry_multiplicity
  _atom_site_fract_x
  _atom_site_fract_y
  _atom_site_fract_z
  _atom_site_occupancy
  Li  Li1       1.0  0.44752073072484677  0.46092901459993385  0.7130813054252201  1.0000
  O   O1        1.0  0.5755236102513308  0.9338547316269716  0.8665693956893676  1.0000
  O   O2        1.0  0.37628992815978535  0.37237100897335296  0.8450982557537117  1.0000
  O   O3        1.0  0.8736039278014758  0.5516373200400011  0.6708544238789429  1.0000
  O   O4        1.0  0.684712709957874  0.7142701192114753  0.16769274240205956  1.0000
  O   O5        1.0  0.11145985819939597  0.6932919377612663  0.5654788658584753  1.0000
  O   O6        1.0  0.15825305937475775  0.5891002326436166  0.41882227367108893  1.0000
  O   O7        1.0  0.22761946061422833  0.7362041143510272  0.6616242276173168  1.0000
  O   O8        1.0  0.605250858903176  0.3362487627593911  0.026759228383333777  1.0000
