data_image0
_chemical_formula_structural       LiO8
_chemical_formula_sum              "Li1 O8"
_cell_length_a       5.249754507535302
_cell_length_b       5.413199314268996
_cell_length_c       5.41221408469246
_cell_angle_alpha    66.06793548132961
_cell_angle_beta     55.04984107024682
_cell_angle_gamma    55.053804050826955

_space_group_name_H-M_alt    "P 1"
_space_group_IT_number       1

loop_
  _space_group_symop_operation_xyz
  'x, y, z'

loop_
  _atom_site_type_symbol
  _atom_site_label
  _atom_site_symmetry_multiplicity
  _atom_site_fract_x
  _atom_site_fract_y
  _atom_site_fract_z
  _atom_site_occupancy
  Li  Li1       1.0  0.24851146282333048  0.5692668285432063  0.4360295883359129  1.0000
  O   O1        1.0  0.32501474347714066  0.710569297915491  0.08945090294290381  1.0000
  O   O2        1.0  0.04147655761331137  0.3428342423445905  0.23862329732722998  1.0000
  O   O3        1.0  0.6163036176996428  0.9975116469226961  0.9541053469468963  1.0000
  O   O4        1.0  0.8601703874877131  0.34821638104977737  0.35387143165525003  1.0000
  O   O5        1.0  0.5421215443610947  0.1027536241782272  0.720582682223089  1.0000
  O   O6        1.0  0.3860645690332377  0.1968946798788167  0.7564952927015156  1.0000
  O   O7        1.0  0.5201628364331263  0.6408373027876224  0.793674551359933  1.0000
  O   O8        1.0  0.13605105969209497  0.54469332809267  0.12172743470473948  1.0000
