data_image0
_chemical_formula_structural       LiO8
_chemical_formula_sum              "Li1 O8"
_cell_length_a       5.249754507535302
_cell_length_b       5.413199314268996
_cell_length_c       5.41221408469246
_cell_angle_alpha    66.06793548132961
_cell_angle_beta     55.04984107024682
_cell_angle_gamma    55.053804050826955

_space_group_name_H-M_alt    "P 1"
_space_group_IT_number       1

loop_
  _space_group_symop_operation_xyz
  'x, y, z'

loop_
  _atom_site_type_symbol
  _atom_site_label
  _atom_site_symmetry_multiplicity
  _atom_site_fract_x
  _atom_site_fract_y
  _atom_site_fract_z
  _atom_site_occupancy
  Li  Li1       1.0  0.09656203980695466  0.33992746321372636  0.1558027994623501  1.0000
  O   O1        1.0  0.9773396016045055  0.6147382187677977  0.18172957853349203  1.0000
  O   O2        1.0  0.7515331144478479  0.7580603503560841  0.6297954521877074  1.0000
  O   O3        1.0  0.3255291141737331  0.9720929460688303  0.2497336701545052  1.0000
  O   O4        1.0  0.646970358522438  0.3958507327671672  0.9374414865039782  1.0000
  O   O5        1.0  0.3360382915787028  0.0039324088894474585  0.09675852456997092  1.0000
  O   O6        1.0  0.8879143259482755  0.17357787819218018  0.7353702838100302  1.0000
  O   O7        1.0  0.7552008405923303  0.4493553908182175  0.34865406522251163  1.0000
  O   O8        1.0  0.8649552421694064  0.07390377248749047  0.8205267278851238  1.0000
