data_image0
_chemical_formula_structural       LiO8
_chemical_formula_sum              "Li1 O8"
_cell_length_a       5.249754507535302
_cell_length_b       5.413199314268996
_cell_length_c       5.41221408469246
_cell_angle_alpha    66.06793548132961
_cell_angle_beta     55.04984107024682
_cell_angle_gamma    55.053804050826955

_space_group_name_H-M_alt    "P 1"
_space_group_IT_number       1

loop_
  _space_group_symop_operation_xyz
  'x, y, z'

loop_
  _atom_site_type_symbol
  _atom_site_label
  _atom_site_symmetry_multiplicity
  _atom_site_fract_x
  _atom_site_fract_y
  _atom_site_fract_z
  _atom_site_occupancy
  Li  Li1       1.0  0.538463320574607  0.19564344093468833  0.4865589546110698  1.0000
  O   O1        1.0  0.16453122815489607  0.3997942114701507  0.5749118548203498  1.0000
  O   O2        1.0  0.3902236094811222  0.19202401443981643  0.5274569832089853  1.0000
  O   O3        1.0  0.8876487481967388  0.4574509196937129  0.5730758188331961  1.0000
  O   O4        1.0  0.44639826768726465  0.5813097374139327  0.48107848053413704  1.0000
  O   O5        1.0  0.7088734596655257  0.880417794306986  0.5831317739826574  1.0000
  O   O6        1.0  0.6707510220395214  0.19584764185002257  0.1783626832959797  1.0000
  O   O7        1.0  0.8672526264591198  0.9951569448015465  0.35222440052774395  1.0000
  O   O8        1.0  0.5146068163711455  0.858857920063123  0.7702553401671715  1.0000
