data_image0
_chemical_formula_structural       LiO8
_chemical_formula_sum              "Li1 O8"
_cell_length_a       5.249754507535302
_cell_length_b       5.413199314268996
_cell_length_c       5.41221408469246
_cell_angle_alpha    66.06793548132961
_cell_angle_beta     55.04984107024682
_cell_angle_gamma    55.053804050826955

_space_group_name_H-M_alt    "P 1"
_space_group_IT_number       1

loop_
  _space_group_symop_operation_xyz
  'x, y, z'

loop_
  _atom_site_type_symbol
  _atom_site_label
  _atom_site_symmetry_multiplicity
  _atom_site_fract_x
  _atom_site_fract_y
  _atom_site_fract_z
  _atom_site_occupancy
  Li  Li1       1.0  0.7473906609321546  0.18295854536694378  0.6958310816878708  1.0000
  O   O1        1.0  0.6782076975103379  0.20946218931723148  0.6941452253247746  1.0000
  O   O2        1.0  0.17561691778528044  0.8310283975383896  0.6720601757244538  1.0000
  O   O3        1.0  0.11712780499800601  0.4880744790584941  0.7897418992448024  1.0000
  O   O4        1.0  0.8127048413955862  0.38818616615334456  0.5993266488476081  1.0000
  O   O5        1.0  0.39410050538856467  0.28129300289135983  0.8682265768912885  1.0000
  O   O6        1.0  0.20603690038108802  0.5214765840488411  0.7900891864426569  1.0000
  O   O7        1.0  0.8939947355024387  0.48738237243210136  0.3730401465751356  1.0000
  O   O8        1.0  0.3822622261749231  0.6377075391326983  0.6331074747270691  1.0000
