data_image0
_chemical_formula_structural       LiO8
_chemical_formula_sum              "Li1 O8"
_cell_length_a       5.249754507535302
_cell_length_b       5.413199314268996
_cell_length_c       5.41221408469246
_cell_angle_alpha    66.06793548132961
_cell_angle_beta     55.04984107024682
_cell_angle_gamma    55.053804050826955

_space_group_name_H-M_alt    "P 1"
_space_group_IT_number       1

loop_
  _space_group_symop_operation_xyz
  'x, y, z'

loop_
  _atom_site_type_symbol
  _atom_site_label
  _atom_site_symmetry_multiplicity
  _atom_site_fract_x
  _atom_site_fract_y
  _atom_site_fract_z
  _atom_site_occupancy
  Li  Li1       1.0  0.9046110890220973  0.2914879764601679  0.18914735332091936  1.0000
  O   O1        1.0  0.3128169469961364  0.9910285906559722  0.20543224003961225  1.0000
  O   O2        1.0  0.7381583277174961  0.013345643398318785  0.7771244262566483  1.0000
  O   O3        1.0  0.7368129832732251  0.7732140942768311  0.9381505119857678  1.0000
  O   O4        1.0  0.9159821525008471  0.7021114898664358  0.051261651588099255  1.0000
  O   O5        1.0  0.9075139725143515  0.9965712991265718  0.9058921017674955  1.0000
  O   O6        1.0  0.9519456960773605  0.24617052454869537  0.06394323176877847  1.0000
  O   O7        1.0  0.4029395049858522  0.5531620757825504  0.41213112964997123  1.0000
  O   O8        1.0  0.07761708659755628  0.8652140462461464  0.0686038330058174  1.0000
