data_image0
_chemical_formula_structural       LiO8
_chemical_formula_sum              "Li1 O8"
_cell_length_a       5.249754507535302
_cell_length_b       5.413199314268996
_cell_length_c       5.41221408469246
_cell_angle_alpha    66.06793548132961
_cell_angle_beta     55.04984107024682
_cell_angle_gamma    55.053804050826955

_space_group_name_H-M_alt    "P 1"
_space_group_IT_number       1

loop_
  _space_group_symop_operation_xyz
  'x, y, z'

loop_
  _atom_site_type_symbol
  _atom_site_label
  _atom_site_symmetry_multiplicity
  _atom_site_fract_x
  _atom_site_fract_y
  _atom_site_fract_z
  _atom_site_occupancy
  Li  Li1       1.0  0.6527294498149772  0.6848775001640206  0.7129416562547632  1.0000
  O   O1        1.0  0.1521886017471772  0.5845938105087676  0.5510910720922162  1.0000
  O   O2        1.0  0.8300606873758274  0.8841153149120786  0.7517353372352886  1.0000
  O   O3        1.0  0.22214663069397744  0.882182117569208  0.42235138347705714  1.0000
  O   O4        1.0  0.027763849297393506  0.4577406916685476  0.24182088161576587  1.0000
  O   O5        1.0  0.23738868094018528  0.6342437764400728  0.04420495334086283  1.0000
  O   O6        1.0  0.8818956255337902  0.616227712043699  0.24000174842944944  1.0000
  O   O7        1.0  0.13778918952678332  0.926351915131054  0.10960467777694305  1.0000
  O   O8        1.0  0.8242094814016534  0.1378357513179882  0.871897306102845  1.0000
