data_image0
_chemical_formula_structural       LiO8
_chemical_formula_sum              "Li1 O8"
_cell_length_a       5.249754507535302
_cell_length_b       5.413199314268996
_cell_length_c       5.41221408469246
_cell_angle_alpha    66.06793548132961
_cell_angle_beta     55.04984107024682
_cell_angle_gamma    55.053804050826955

_space_group_name_H-M_alt    "P 1"
_space_group_IT_number       1

loop_
  _space_group_symop_operation_xyz
  'x, y, z'

loop_
  _atom_site_type_symbol
  _atom_site_label
  _atom_site_symmetry_multiplicity
  _atom_site_fract_x
  _atom_site_fract_y
  _atom_site_fract_z
  _atom_site_occupancy
  Li  Li1       1.0  0.5116279156924861  0.08196696215491528  0.10057202533616305  1.0000
  O   O1        1.0  0.9229354443513156  0.9081050455408244  0.8769678057768715  1.0000
  O   O2        1.0  0.19779722874445116  0.9926123980883492  0.9422350835541486  1.0000
  O   O3        1.0  0.5211652595114415  0.438947010879545  0.601196435815524  1.0000
  O   O4        1.0  0.8799389573031533  0.5308964983776256  0.3986231437106653  1.0000
  O   O5        1.0  0.03480498080598737  0.23246354383628542  0.9538772889867451  1.0000
  O   O6        1.0  0.5514286874359904  0.2629570706085884  0.182267098699052  1.0000
  O   O7        1.0  0.9870116447847579  0.09438578538335207  0.15771239281764338  1.0000
  O   O8        1.0  0.30740741645540837  0.12072418693538367  0.0741955981806548  1.0000
