data_image0
_chemical_formula_structural       LiO8
_chemical_formula_sum              "Li1 O8"
_cell_length_a       5.249754507535302
_cell_length_b       5.413199314268996
_cell_length_c       5.41221408469246
_cell_angle_alpha    66.06793548132961
_cell_angle_beta     55.04984107024682
_cell_angle_gamma    55.053804050826955

_space_group_name_H-M_alt    "P 1"
_space_group_IT_number       1

loop_
  _space_group_symop_operation_xyz
  'x, y, z'

loop_
  _atom_site_type_symbol
  _atom_site_label
  _atom_site_symmetry_multiplicity
  _atom_site_fract_x
  _atom_site_fract_y
  _atom_site_fract_z
  _atom_site_occupancy
  Li  Li1       1.0  0.8696790295668109  0.5605565758317894  0.9319009468143591  1.0000
  O   O1        1.0  0.23537748971844152  0.8240600765173518  0.5750790168077948  1.0000
  O   O2        1.0  0.9759330869018825  0.9627831328142111  0.9731394082150846  1.0000
  O   O3        1.0  0.739930051785997  0.4847568744193751  0.8756441262259926  1.0000
  O   O4        1.0  0.1944827644397611  0.4978320217299679  0.7302476162513543  1.0000
  O   O5        1.0  0.6403529834598061  0.9828407072164014  0.7765530677857396  1.0000
  O   O6        1.0  0.026640315158893202  0.5867439095334301  0.8972397949996562  1.0000
  O   O7        1.0  0.7104699706356712  0.053070975900656236  0.9701379553559377  1.0000
  O   O8        1.0  0.8953385083338503  0.17617343179007428  0.6606745667336327  1.0000
