data_image0
_chemical_formula_structural       LiO8
_chemical_formula_sum              "Li1 O8"
_cell_length_a       5.249754507535302
_cell_length_b       5.413199314268996
_cell_length_c       5.41221408469246
_cell_angle_alpha    66.06793548132961
_cell_angle_beta     55.04984107024682
_cell_angle_gamma    55.053804050826955

_space_group_name_H-M_alt    "P 1"
_space_group_IT_number       1

loop_
  _space_group_symop_operation_xyz
  'x, y, z'

loop_
  _atom_site_type_symbol
  _atom_site_label
  _atom_site_symmetry_multiplicity
  _atom_site_fract_x
  _atom_site_fract_y
  _atom_site_fract_z
  _atom_site_occupancy
  Li  Li1       1.0  0.5204770376076837  0.02220260710637234  0.41637746670815545  1.0000
  O   O1        1.0  0.36755133258260564  0.7625974924897152  0.0008168040367628748  1.0000
  O   O2        1.0  0.04601604897560385  0.15424056416513743  0.008513404015783266  1.0000
  O   O3        1.0  0.8823069486104487  0.5745459892240774  0.5168270583964301  1.0000
  O   O4        1.0  0.08484826976869897  0.7968068335557064  0.36254333761870683  1.0000
  O   O5        1.0  0.6511150873003233  0.02083453490735465  0.4806714012785349  1.0000
  O   O6        1.0  0.1932272575083438  0.10783983994557111  0.34978389608697746  1.0000
  O   O7        1.0  0.6098521492246078  0.1651609079372811  0.17703633330856405  1.0000
  O   O8        1.0  0.008025428992088024  0.4392211824082253  0.7472732888805638  1.0000
