data_image0
_chemical_formula_structural       LiO8
_chemical_formula_sum              "Li1 O8"
_cell_length_a       5.249754507535302
_cell_length_b       5.413199314268996
_cell_length_c       5.41221408469246
_cell_angle_alpha    66.06793548132961
_cell_angle_beta     55.04984107024682
_cell_angle_gamma    55.053804050826955

_space_group_name_H-M_alt    "P 1"
_space_group_IT_number       1

loop_
  _space_group_symop_operation_xyz
  'x, y, z'

loop_
  _atom_site_type_symbol
  _atom_site_label
  _atom_site_symmetry_multiplicity
  _atom_site_fract_x
  _atom_site_fract_y
  _atom_site_fract_z
  _atom_site_occupancy
  Li  Li1       1.0  0.4149144269742244  0.6088246504622354  0.6612981325871936  1.0000
  O   O1        1.0  0.9873033505502313  0.6993109125480199  0.5382147837004645  1.0000
  O   O2        1.0  0.12766150118461894  0.950860956070084  0.11304489237190296  1.0000
  O   O3        1.0  0.32469215375380855  0.8941133617679782  0.7641763842096978  1.0000
  O   O4        1.0  0.7714243499717277  0.015345379501499945  0.8732185091274935  1.0000
  O   O5        1.0  0.5195503365167831  0.25748851637515635  0.7245795431093107  1.0000
  O   O6        1.0  0.02608306932640847  0.3622693451270038  0.8752741001757305  1.0000
  O   O7        1.0  0.10491029977466582  0.7362040094584827  0.04672879652859052  1.0000
  O   O8        1.0  0.9684521204183554  0.12889220414754732  0.3252007052754351  1.0000
