data_image0
_chemical_formula_structural       LiO8
_chemical_formula_sum              "Li1 O8"
_cell_length_a       5.249754507535302
_cell_length_b       5.413199314268996
_cell_length_c       5.41221408469246
_cell_angle_alpha    66.06793548132961
_cell_angle_beta     55.04984107024682
_cell_angle_gamma    55.053804050826955

_space_group_name_H-M_alt    "P 1"
_space_group_IT_number       1

loop_
  _space_group_symop_operation_xyz
  'x, y, z'

loop_
  _atom_site_type_symbol
  _atom_site_label
  _atom_site_symmetry_multiplicity
  _atom_site_fract_x
  _atom_site_fract_y
  _atom_site_fract_z
  _atom_site_occupancy
  Li  Li1       1.0  0.32856060874208026  0.08236171908750478  0.019376637273801123  1.0000
  O   O1        1.0  0.627196291750757  0.23749920101137834  0.7462861130046292  1.0000
  O   O2        1.0  0.8271658501225403  0.32479912074452066  0.20938527030770615  1.0000
  O   O3        1.0  0.2559658396620952  0.23139477895416505  0.41998950747254327  1.0000
  O   O4        1.0  0.3890169218221118  0.2195440395627024  0.46144158350875175  1.0000
  O   O5        1.0  0.8342268634846377  0.48281163241669933  0.35619264172057363  1.0000
  O   O6        1.0  0.5373792635993393  0.4231635530198652  0.8479783193371877  1.0000
  O   O7        1.0  0.19390477711401743  0.20043964081549248  0.4913694480199222  1.0000
  O   O8        1.0  0.20524231984785146  0.9161271069284211  0.10740944208660563  1.0000
