data_image0
_chemical_formula_structural       LiO8
_chemical_formula_sum              "Li1 O8"
_cell_length_a       5.249754507535302
_cell_length_b       5.413199314268996
_cell_length_c       5.41221408469246
_cell_angle_alpha    66.06793548132961
_cell_angle_beta     55.04984107024682
_cell_angle_gamma    55.053804050826955

_space_group_name_H-M_alt    "P 1"
_space_group_IT_number       1

loop_
  _space_group_symop_operation_xyz
  'x, y, z'

loop_
  _atom_site_type_symbol
  _atom_site_label
  _atom_site_symmetry_multiplicity
  _atom_site_fract_x
  _atom_site_fract_y
  _atom_site_fract_z
  _atom_site_occupancy
  Li  Li1       1.0  0.3181181748437041  0.37136194817581725  0.33047985633191246  1.0000
  O   O1        1.0  0.3253944900213881  0.6907147016364661  0.002511256863189537  1.0000
  O   O2        1.0  0.1957182065446672  0.24272077605547349  0.1592388163098768  1.0000
  O   O3        1.0  0.6683312918382853  0.45502137297029677  0.11292258770528463  1.0000
  O   O4        1.0  0.8925811262499224  0.8521938032536269  0.7579523359642621  1.0000
  O   O5        1.0  0.13044162996058617  0.9715356479816215  0.5285076835963167  1.0000
  O   O6        1.0  0.5944087143380463  0.7136081120772317  0.9956751380711637  1.0000
  O   O7        1.0  0.26860203965322427  0.38076252302914604  0.6726592581147806  1.0000
  O   O8        1.0  0.9445166791918931  0.5546030180703335  0.03996406346922976  1.0000
