data_image0
_chemical_formula_structural       LiO8
_chemical_formula_sum              "Li1 O8"
_cell_length_a       5.249754507535302
_cell_length_b       5.413199314268996
_cell_length_c       5.41221408469246
_cell_angle_alpha    66.06793548132961
_cell_angle_beta     55.04984107024682
_cell_angle_gamma    55.053804050826955

_space_group_name_H-M_alt    "P 1"
_space_group_IT_number       1

loop_
  _space_group_symop_operation_xyz
  'x, y, z'

loop_
  _atom_site_type_symbol
  _atom_site_label
  _atom_site_symmetry_multiplicity
  _atom_site_fract_x
  _atom_site_fract_y
  _atom_site_fract_z
  _atom_site_occupancy
  Li  Li1       1.0  0.968106698164398  0.8414149311619461  0.5801260047562558  1.0000
  O   O1        1.0  0.31976009702225516  0.9302396548404523  0.13245572397505612  1.0000
  O   O2        1.0  0.7395132203806511  0.23506639304733667  0.512477842265536  1.0000
  O   O3        1.0  0.29989190488991824  0.3868893156971325  0.9005113231523865  1.0000
  O   O4        1.0  0.07088228136169761  0.7450944043341128  0.24287930404650382  1.0000
  O   O5        1.0  0.7400796515096442  0.3076766788092584  0.1757089675508574  1.0000
  O   O6        1.0  0.8095683693079998  0.24314370653175743  0.0200359580877425  1.0000
  O   O7        1.0  0.2994628724123274  0.711428383845444  0.17386882580420604  1.0000
  O   O8        1.0  0.4182929396422068  0.2799557126721379  0.8998145963461432  1.0000
