data_image0
_chemical_formula_structural       LiO8
_chemical_formula_sum              "Li1 O8"
_cell_length_a       5.249754507535302
_cell_length_b       5.413199314268996
_cell_length_c       5.41221408469246
_cell_angle_alpha    66.06793548132961
_cell_angle_beta     55.04984107024682
_cell_angle_gamma    55.053804050826955

_space_group_name_H-M_alt    "P 1"
_space_group_IT_number       1

loop_
  _space_group_symop_operation_xyz
  'x, y, z'

loop_
  _atom_site_type_symbol
  _atom_site_label
  _atom_site_symmetry_multiplicity
  _atom_site_fract_x
  _atom_site_fract_y
  _atom_site_fract_z
  _atom_site_occupancy
  Li  Li1       1.0  0.9868825870765221  0.9525871041848184  0.4351012990977736  1.0000
  O   O1        1.0  0.12357511289866352  0.7487648017901378  0.25210735852509814  1.0000
  O   O2        1.0  0.5546471749277124  0.9267647577915294  0.7877207546841483  1.0000
  O   O3        1.0  0.4674353265430682  0.7771906707471068  0.1515367553388387  1.0000
  O   O4        1.0  0.3926281083236809  0.5532214729890939  0.44989455892881836  1.0000
  O   O5        1.0  0.33018797454420223  0.3094242129860376  0.6290076417972692  1.0000
  O   O6        1.0  0.1307024703653561  0.3871413179937129  0.8363848853449065  1.0000
  O   O7        1.0  0.8567859185716316  0.10337881728605236  0.3680152431400643  1.0000
  O   O8        1.0  0.31931052667419113  0.9654026605965527  0.6648118918681871  1.0000
