data_image0
_chemical_formula_structural       LiO8
_chemical_formula_sum              "Li1 O8"
_cell_length_a       5.249754507535302
_cell_length_b       5.413199314268996
_cell_length_c       5.41221408469246
_cell_angle_alpha    66.06793548132961
_cell_angle_beta     55.04984107024682
_cell_angle_gamma    55.053804050826955

_space_group_name_H-M_alt    "P 1"
_space_group_IT_number       1

loop_
  _space_group_symop_operation_xyz
  'x, y, z'

loop_
  _atom_site_type_symbol
  _atom_site_label
  _atom_site_symmetry_multiplicity
  _atom_site_fract_x
  _atom_site_fract_y
  _atom_site_fract_z
  _atom_site_occupancy
  Li  Li1       1.0  0.9557460533840398  0.6587795627445985  0.6805121381474208  1.0000
  O   O1        1.0  0.3548934729186959  0.7460030991726967  0.5274928867433069  1.0000
  O   O2        1.0  0.10226926648562862  0.34967702587876004  0.9080463375617178  1.0000
  O   O3        1.0  0.6825156415912375  0.4217176978592505  0.3896211333359503  1.0000
  O   O4        1.0  0.21538585017244216  0.3324431025675807  0.6081728324134055  1.0000
  O   O5        1.0  0.25919991389827246  0.10833007432551156  0.055702610108888995  1.0000
  O   O6        1.0  0.5565668741361307  0.6575065969073635  0.11177034512975581  1.0000
  O   O7        1.0  0.8558072230675435  0.1121316271588384  0.8404667198328752  1.0000
  O   O8        1.0  0.26518735920568304  0.7785753482046829  0.15199747850504153  1.0000
