data_image0
_chemical_formula_structural       LiO8
_chemical_formula_sum              "Li1 O8"
_cell_length_a       5.249754507535302
_cell_length_b       5.413199314268996
_cell_length_c       5.41221408469246
_cell_angle_alpha    66.06793548132961
_cell_angle_beta     55.04984107024682
_cell_angle_gamma    55.053804050826955

_space_group_name_H-M_alt    "P 1"
_space_group_IT_number       1

loop_
  _space_group_symop_operation_xyz
  'x, y, z'

loop_
  _atom_site_type_symbol
  _atom_site_label
  _atom_site_symmetry_multiplicity
  _atom_site_fract_x
  _atom_site_fract_y
  _atom_site_fract_z
  _atom_site_occupancy
  Li  Li1       1.0  0.02172341404206435  0.5693586009493217  0.2286054325642013  1.0000
  O   O1        1.0  0.6912460281164883  0.24326223072446496  0.3447977364367212  1.0000
  O   O2        1.0  0.5997133325471644  0.43729914681560483  0.643104125199681  1.0000
  O   O3        1.0  0.39882052612535546  0.6706150887669793  0.45351688735058104  1.0000
  O   O4        1.0  0.5380309954681657  0.543443949558096  0.37278803142422845  1.0000
  O   O5        1.0  0.3025391699025981  0.06877120910275458  0.8083682939131265  1.0000
  O   O6        1.0  0.7770364093024575  0.9414753580448592  0.06072624582727926  1.0000
  O   O7        1.0  0.8055409319992322  0.41450152279734453  0.21930664759598528  1.0000
  O   O8        1.0  0.30608563887079754  0.22288265726625767  0.44411038048945706  1.0000
