data_image0
_chemical_formula_structural       LiO8
_chemical_formula_sum              "Li1 O8"
_cell_length_a       5.249754507535302
_cell_length_b       5.413199314268996
_cell_length_c       5.41221408469246
_cell_angle_alpha    66.06793548132961
_cell_angle_beta     55.04984107024682
_cell_angle_gamma    55.053804050826955

_space_group_name_H-M_alt    "P 1"
_space_group_IT_number       1

loop_
  _space_group_symop_operation_xyz
  'x, y, z'

loop_
  _atom_site_type_symbol
  _atom_site_label
  _atom_site_symmetry_multiplicity
  _atom_site_fract_x
  _atom_site_fract_y
  _atom_site_fract_z
  _atom_site_occupancy
  Li  Li1       1.0  0.8824044292928477  0.11338599537778293  0.011316702611921414  1.0000
  O   O1        1.0  0.45557165889007933  0.48540197415396946  0.9035075475001051  1.0000
  O   O2        1.0  0.5841545260887955  0.20120579811227657  0.4956286498496141  1.0000
  O   O3        1.0  0.9461104041337336  0.328658761262286  0.8702471627593553  1.0000
  O   O4        1.0  0.8262788288314056  0.28138548175486733  0.9036530440550621  1.0000
  O   O5        1.0  0.18313455289839453  0.1858890244053235  0.4716409437195921  1.0000
  O   O6        1.0  0.40572424913123667  0.4353005228516338  0.5679672934461166  1.0000
  O   O7        1.0  0.7853319855965815  0.4150400005805728  0.650467023294139  1.0000
  O   O8        1.0  0.5494402102913387  0.5830878965356519  0.11243054051813894  1.0000
