data_image0
_chemical_formula_structural       LiO8
_chemical_formula_sum              "Li1 O8"
_cell_length_a       5.249754507535302
_cell_length_b       5.413199314268996
_cell_length_c       5.41221408469246
_cell_angle_alpha    66.06793548132961
_cell_angle_beta     55.04984107024682
_cell_angle_gamma    55.053804050826955

_space_group_name_H-M_alt    "P 1"
_space_group_IT_number       1

loop_
  _space_group_symop_operation_xyz
  'x, y, z'

loop_
  _atom_site_type_symbol
  _atom_site_label
  _atom_site_symmetry_multiplicity
  _atom_site_fract_x
  _atom_site_fract_y
  _atom_site_fract_z
  _atom_site_occupancy
  Li  Li1       1.0  0.6150214886340706  0.25090943971461854  0.4653421740740029  1.0000
  O   O1        1.0  0.8917708889992468  0.690758092904828  0.6855503261568252  1.0000
  O   O2        1.0  0.5411290380153135  0.4277501788562068  0.812234891364092  1.0000
  O   O3        1.0  0.5241360828963906  0.7126002834330336  0.8128089361792838  1.0000
  O   O4        1.0  0.6973817393359596  0.16937828132979504  0.4556590477353666  1.0000
  O   O5        1.0  0.8210060447728367  0.33876927711314764  0.5028194222496591  1.0000
  O   O6        1.0  0.08058827982194927  0.7523533179555657  0.4080090440091624  1.0000
  O   O7        1.0  0.3727789735933271  0.295143603889116  0.897855514921801  1.0000
  O   O8        1.0  0.11364796316421888  0.5574965219790506  0.33778149079319064  1.0000
