data_image0
_chemical_formula_structural       LiO8
_chemical_formula_sum              "Li1 O8"
_cell_length_a       5.249754507535302
_cell_length_b       5.413199314268996
_cell_length_c       5.41221408469246
_cell_angle_alpha    66.06793548132961
_cell_angle_beta     55.04984107024682
_cell_angle_gamma    55.053804050826955

_space_group_name_H-M_alt    "P 1"
_space_group_IT_number       1

loop_
  _space_group_symop_operation_xyz
  'x, y, z'

loop_
  _atom_site_type_symbol
  _atom_site_label
  _atom_site_symmetry_multiplicity
  _atom_site_fract_x
  _atom_site_fract_y
  _atom_site_fract_z
  _atom_site_occupancy
  Li  Li1       1.0  0.1430232855770388  0.10222769317701008  0.7297522867520208  1.0000
  O   O1        1.0  0.3516414754527424  0.7074882421179254  0.13696098468913753  1.0000
  O   O2        1.0  0.6417785855120997  0.6931173059763509  0.8002100001627461  1.0000
  O   O3        1.0  0.6308134942908694  0.6157131811891574  0.503197330833963  1.0000
  O   O4        1.0  0.628232434671034  0.916480545468012  0.21442744514021683  1.0000
  O   O5        1.0  0.3133056931440237  0.995409899648914  0.5608858284397336  1.0000
  O   O6        1.0  0.12959517497043116  0.08155189056311585  0.301307930182233  1.0000
  O   O7        1.0  0.7087794875787488  0.5742076897966726  0.9627184857499671  1.0000
  O   O8        1.0  0.2539474611068755  0.3576321220691767  0.6449378377020771  1.0000
