data_image0
_chemical_formula_structural       LiO8
_chemical_formula_sum              "Li1 O8"
_cell_length_a       5.249754507535302
_cell_length_b       5.413199314268996
_cell_length_c       5.41221408469246
_cell_angle_alpha    66.06793548132961
_cell_angle_beta     55.04984107024682
_cell_angle_gamma    55.053804050826955

_space_group_name_H-M_alt    "P 1"
_space_group_IT_number       1

loop_
  _space_group_symop_operation_xyz
  'x, y, z'

loop_
  _atom_site_type_symbol
  _atom_site_label
  _atom_site_symmetry_multiplicity
  _atom_site_fract_x
  _atom_site_fract_y
  _atom_site_fract_z
  _atom_site_occupancy
  Li  Li1       1.0  0.7828387771662335  0.3572622388564213  0.25955833745656776  1.0000
  O   O1        1.0  0.4385421169951833  0.34086918898609464  0.7739726941718743  1.0000
  O   O2        1.0  0.6734642139261773  0.9503427799612254  0.9359980609149403  1.0000
  O   O3        1.0  0.44271639441706867  0.09761276181122192  0.7685090316979419  1.0000
  O   O4        1.0  0.18096586941849324  0.990204033481076  0.08661058533226651  1.0000
  O   O5        1.0  0.9528229695977046  0.6790607370628479  0.5012628015722811  1.0000
  O   O6        1.0  0.1935236085946883  0.9896451627781175  0.14823130857746492  1.0000
  O   O7        1.0  0.13142330235581046  0.49592078218908586  0.703508751414418  1.0000
  O   O8        1.0  0.27468347666071224  0.09010468903647961  0.08464431723229193  1.0000
