data_image0
_chemical_formula_structural       LiO8
_chemical_formula_sum              "Li1 O8"
_cell_length_a       5.249754507535302
_cell_length_b       5.413199314268996
_cell_length_c       5.41221408469246
_cell_angle_alpha    66.06793548132961
_cell_angle_beta     55.04984107024682
_cell_angle_gamma    55.053804050826955

_space_group_name_H-M_alt    "P 1"
_space_group_IT_number       1

loop_
  _space_group_symop_operation_xyz
  'x, y, z'

loop_
  _atom_site_type_symbol
  _atom_site_label
  _atom_site_symmetry_multiplicity
  _atom_site_fract_x
  _atom_site_fract_y
  _atom_site_fract_z
  _atom_site_occupancy
  Li  Li1       1.0  0.20193401889011398  0.39439098724664134  0.5447883698958726  1.0000
  O   O1        1.0  0.9332824874774279  0.2845953334452549  0.6090483041802628  1.0000
  O   O2        1.0  0.8566517554041226  0.7043316222607814  0.21849256929412775  1.0000
  O   O3        1.0  0.4929403310392857  0.7206046050493029  0.8168847609242604  1.0000
  O   O4        1.0  0.6445810862180661  0.923021848308565  0.9597494558674455  1.0000
  O   O5        1.0  0.8941710122273099  0.4608621987778534  0.23543540371623095  1.0000
  O   O6        1.0  0.5978017796956081  0.8038810445431293  0.05611993381524627  1.0000
  O   O7        1.0  0.14564734932859835  0.16923365002051938  0.935280358062883  1.0000
  O   O8        1.0  0.4926873331585071  0.8887147722016362  0.09845444551018723  1.0000
