data_image0
_chemical_formula_structural       LiO8
_chemical_formula_sum              "Li1 O8"
_cell_length_a       5.249754507535302
_cell_length_b       5.413199314268996
_cell_length_c       5.41221408469246
_cell_angle_alpha    66.06793548132961
_cell_angle_beta     55.04984107024682
_cell_angle_gamma    55.053804050826955

_space_group_name_H-M_alt    "P 1"
_space_group_IT_number       1

loop_
  _space_group_symop_operation_xyz
  'x, y, z'

loop_
  _atom_site_type_symbol
  _atom_site_label
  _atom_site_symmetry_multiplicity
  _atom_site_fract_x
  _atom_site_fract_y
  _atom_site_fract_z
  _atom_site_occupancy
  Li  Li1       1.0  0.23853328639100368  0.11627666301146178  0.669765629148614  1.0000
  O   O1        1.0  0.15799782461849787  0.561191015866326  0.7786494765779821  1.0000
  O   O2        1.0  0.95814583741166  0.06889678660817822  0.12758555475493694  1.0000
  O   O3        1.0  0.5549968862617405  0.34054864812290475  0.6499792705962868  1.0000
  O   O4        1.0  0.5525520783997422  0.39855562910315  0.747934524410482  1.0000
  O   O5        1.0  0.983654404250828  0.7947052116269369  0.6353900715659648  1.0000
  O   O6        1.0  0.40659258520048525  0.8955802230361698  0.9183235423899987  1.0000
  O   O7        1.0  0.747331534868696  0.9237709185456087  0.7363413034788096  1.0000
  O   O8        1.0  0.17765971428895  0.21287710738359067  0.36626817019342184  1.0000
