data_image0
_chemical_formula_structural       LiO8
_chemical_formula_sum              "Li1 O8"
_cell_length_a       5.249754507535302
_cell_length_b       5.413199314268996
_cell_length_c       5.41221408469246
_cell_angle_alpha    66.06793548132961
_cell_angle_beta     55.04984107024682
_cell_angle_gamma    55.053804050826955

_space_group_name_H-M_alt    "P 1"
_space_group_IT_number       1

loop_
  _space_group_symop_operation_xyz
  'x, y, z'

loop_
  _atom_site_type_symbol
  _atom_site_label
  _atom_site_symmetry_multiplicity
  _atom_site_fract_x
  _atom_site_fract_y
  _atom_site_fract_z
  _atom_site_occupancy
  Li  Li1       1.0  0.5853850413706283  0.7662986791210731  0.13002977542519645  1.0000
  O   O1        1.0  0.5778298440507541  0.9533319943252678  0.07162334999880748  1.0000
  O   O2        1.0  0.9894762830717745  0.863583454689107  0.839184289594801  1.0000
  O   O3        1.0  0.5435012316741066  0.9111072297894829  0.8685088426108258  1.0000
  O   O4        1.0  0.2913330907490348  0.8284206777603558  0.010777871674939377  1.0000
  O   O5        1.0  0.6177573178935418  0.09932872799739556  0.49011313260839273  1.0000
  O   O6        1.0  0.23091823009026236  0.45754888817964456  0.010925449982378765  1.0000
  O   O7        1.0  0.46053066443029955  0.8668273511215858  0.6506551157599141  1.0000
  O   O8        1.0  0.5068575002640046  0.9077665326093634  0.36751120996508746  1.0000
