data_image0
_chemical_formula_structural       LiO8
_chemical_formula_sum              "Li1 O8"
_cell_length_a       5.249754507535302
_cell_length_b       5.413199314268996
_cell_length_c       5.41221408469246
_cell_angle_alpha    66.06793548132961
_cell_angle_beta     55.04984107024682
_cell_angle_gamma    55.053804050826955

_space_group_name_H-M_alt    "P 1"
_space_group_IT_number       1

loop_
  _space_group_symop_operation_xyz
  'x, y, z'

loop_
  _atom_site_type_symbol
  _atom_site_label
  _atom_site_symmetry_multiplicity
  _atom_site_fract_x
  _atom_site_fract_y
  _atom_site_fract_z
  _atom_site_occupancy
  Li  Li1       1.0  0.15827294126479785  0.22798921517334492  0.7350041764842246  1.0000
  O   O1        1.0  0.6780857351015817  0.0939759748993021  0.33252490531567247  1.0000
  O   O2        1.0  0.5424403864388623  0.022517824069318237  0.970086756974279  1.0000
  O   O3        1.0  0.1411938803290056  0.6451866392828478  0.2730332335061316  1.0000
  O   O4        1.0  0.8325554203303884  0.5874431380665257  0.5045519787220756  1.0000
  O   O5        1.0  0.07498353446471029  0.7594112196937122  0.268256631886965  1.0000
  O   O6        1.0  0.754840957256027  0.5684011167632939  0.5058347547531161  1.0000
  O   O7        1.0  0.9154941505677598  0.9336531775954882  0.7582299869563087  1.0000
  O   O8        1.0  0.8826988283749841  0.5337774002262092  0.4158349968541586  1.0000
