data_image0
_chemical_formula_structural       LiO8
_chemical_formula_sum              "Li1 O8"
_cell_length_a       5.249754507535302
_cell_length_b       5.413199314268996
_cell_length_c       5.41221408469246
_cell_angle_alpha    66.06793548132961
_cell_angle_beta     55.04984107024682
_cell_angle_gamma    55.053804050826955

_space_group_name_H-M_alt    "P 1"
_space_group_IT_number       1

loop_
  _space_group_symop_operation_xyz
  'x, y, z'

loop_
  _atom_site_type_symbol
  _atom_site_label
  _atom_site_symmetry_multiplicity
  _atom_site_fract_x
  _atom_site_fract_y
  _atom_site_fract_z
  _atom_site_occupancy
  Li  Li1       1.0  0.8768310738477183  0.8582262578268605  0.7508823592059137  1.0000
  O   O1        1.0  0.4039685080975133  0.4118257851599476  0.9295983836277841  1.0000
  O   O2        1.0  0.4193448849514141  0.7199416205855753  0.799808810941343  1.0000
  O   O3        1.0  0.23183148194676306  0.9153180300573425  0.8399473542442664  1.0000
  O   O4        1.0  0.008742343660468332  0.6027033541630438  0.8068936982936057  1.0000
  O   O5        1.0  0.4860921303472665  0.5586731530372582  0.42679401300035913  1.0000
  O   O6        1.0  0.2758167159807172  0.6705602085289968  0.13352870138621942  1.0000
  O   O7        1.0  0.04870867900611131  0.4560306405436272  0.4366275871161207  1.0000
  O   O8        1.0  0.8248369172610577  0.315249171991276  0.6586979275032263  1.0000
