data_image0
_chemical_formula_structural       LiO8
_chemical_formula_sum              "Li1 O8"
_cell_length_a       5.249754507535302
_cell_length_b       5.413199314268996
_cell_length_c       5.41221408469246
_cell_angle_alpha    66.06793548132961
_cell_angle_beta     55.04984107024682
_cell_angle_gamma    55.053804050826955

_space_group_name_H-M_alt    "P 1"
_space_group_IT_number       1

loop_
  _space_group_symop_operation_xyz
  'x, y, z'

loop_
  _atom_site_type_symbol
  _atom_site_label
  _atom_site_symmetry_multiplicity
  _atom_site_fract_x
  _atom_site_fract_y
  _atom_site_fract_z
  _atom_site_occupancy
  Li  Li1       1.0  0.822307496338551  0.8660604368194171  0.8558212152330711  1.0000
  O   O1        1.0  0.7264713943809955  0.47452008628756026  0.7018594496821116  1.0000
  O   O2        1.0  0.25828287466186595  0.5762827307549019  0.791317839310338  1.0000
  O   O3        1.0  0.8904652432384736  0.8193478185218126  0.970053779937194  1.0000
  O   O4        1.0  0.9224231581804467  0.6846935593131604  0.6538991685838216  1.0000
  O   O5        1.0  0.6817150530724021  0.9842154494533144  0.393691380223256  1.0000
  O   O6        1.0  0.1684760689093734  0.8506494350172211  0.295562951941986  1.0000
  O   O7        1.0  0.17476672441706498  0.46239112765328727  0.4864167100512411  1.0000
  O   O8        1.0  0.3141204009409506  0.5896968167053842  0.6024286304059601  1.0000
