data_image0
_chemical_formula_structural       LiO8
_chemical_formula_sum              "Li1 O8"
_cell_length_a       5.249754507535302
_cell_length_b       5.413199314268996
_cell_length_c       5.41221408469246
_cell_angle_alpha    66.06793548132961
_cell_angle_beta     55.04984107024682
_cell_angle_gamma    55.053804050826955

_space_group_name_H-M_alt    "P 1"
_space_group_IT_number       1

loop_
  _space_group_symop_operation_xyz
  'x, y, z'

loop_
  _atom_site_type_symbol
  _atom_site_label
  _atom_site_symmetry_multiplicity
  _atom_site_fract_x
  _atom_site_fract_y
  _atom_site_fract_z
  _atom_site_occupancy
  Li  Li1       1.0  0.8085686823292377  0.5699775469120496  0.3886825890541097  1.0000
  O   O1        1.0  0.7849623732954054  0.6418270705243376  0.2464607608700593  1.0000
  O   O2        1.0  0.1102674676875175  0.6292831254181728  0.4905157828873996  1.0000
  O   O3        1.0  0.49768905889380477  0.3705994826790189  0.9427371391995649  1.0000
  O   O4        1.0  0.580815011361338  0.747053330428205  0.06097902872344463  1.0000
  O   O5        1.0  0.3517537198703682  0.4524250655479385  0.3772425854838435  1.0000
  O   O6        1.0  0.5342337246364188  0.44160489321463636  0.38514893099016856  1.0000
  O   O7        1.0  0.007034132580386654  0.3861796304091598  0.9683498653476477  1.0000
  O   O8        1.0  0.6781496902937292  0.8108682574769279  0.06134949718233562  1.0000
