data_image0
_chemical_formula_structural       LiO8
_chemical_formula_sum              "Li1 O8"
_cell_length_a       5.249754507535302
_cell_length_b       5.413199314268996
_cell_length_c       5.41221408469246
_cell_angle_alpha    66.06793548132961
_cell_angle_beta     55.04984107024682
_cell_angle_gamma    55.053804050826955

_space_group_name_H-M_alt    "P 1"
_space_group_IT_number       1

loop_
  _space_group_symop_operation_xyz
  'x, y, z'

loop_
  _atom_site_type_symbol
  _atom_site_label
  _atom_site_symmetry_multiplicity
  _atom_site_fract_x
  _atom_site_fract_y
  _atom_site_fract_z
  _atom_site_occupancy
  Li  Li1       1.0  0.8497609406238791  0.9627922075821189  0.38807861144922495  1.0000
  O   O1        1.0  0.9867026106769412  0.17290038662182017  0.6717700839056491  1.0000
  O   O2        1.0  0.8139840149855928  0.7367121784161146  0.6701051455119078  1.0000
  O   O3        1.0  0.9747764712752272  0.09667515877664812  0.5035725407296248  1.0000
  O   O4        1.0  0.4838431214743437  0.9152632131362708  0.9293658261612876  1.0000
  O   O5        1.0  0.16758256060465726  0.29107336645549076  0.8522651236842052  1.0000
  O   O6        1.0  0.21292736224892828  0.6298983418436208  0.3608906897394304  1.0000
  O   O7        1.0  0.28382627297151686  0.05439559315639997  0.8516979717759625  1.0000
  O   O8        1.0  0.5967947145175145  0.9675618424751065  0.9286584872385859  1.0000
