data_image0
_chemical_formula_structural       LiO8
_chemical_formula_sum              "Li1 O8"
_cell_length_a       5.249754507535302
_cell_length_b       5.413199314268996
_cell_length_c       5.41221408469246
_cell_angle_alpha    66.06793548132961
_cell_angle_beta     55.04984107024682
_cell_angle_gamma    55.053804050826955

_space_group_name_H-M_alt    "P 1"
_space_group_IT_number       1

loop_
  _space_group_symop_operation_xyz
  'x, y, z'

loop_
  _atom_site_type_symbol
  _atom_site_label
  _atom_site_symmetry_multiplicity
  _atom_site_fract_x
  _atom_site_fract_y
  _atom_site_fract_z
  _atom_site_occupancy
  Li  Li1       1.0  0.493537839460501  0.07946670133034672  0.13539946490913657  1.0000
  O   O1        1.0  0.8110712328891521  0.550764465775389  0.5873010608673539  1.0000
  O   O2        1.0  0.22759351814914908  0.41844996631058606  0.9072794027123976  1.0000
  O   O3        1.0  0.9187386520798526  0.35561701546367885  0.0253436338738684  1.0000
  O   O4        1.0  0.7909833027528101  0.33985417677108387  0.3361830645581021  1.0000
  O   O5        1.0  0.9092325421330436  0.7283807930016462  0.19656674014240139  1.0000
  O   O6        1.0  0.6155061495630623  0.7938862894174434  0.8479717689307478  1.0000
  O   O7        1.0  0.5971148209853467  0.4717615648018345  0.2239211620692032  1.0000
  O   O8        1.0  0.6444936254405746  0.07431102021160087  0.8063251125511677  1.0000
