data_image0
_chemical_formula_structural       LiO8
_chemical_formula_sum              "Li1 O8"
_cell_length_a       5.249754507535302
_cell_length_b       5.413199314268996
_cell_length_c       5.41221408469246
_cell_angle_alpha    66.06793548132961
_cell_angle_beta     55.04984107024682
_cell_angle_gamma    55.053804050826955

_space_group_name_H-M_alt    "P 1"
_space_group_IT_number       1

loop_
  _space_group_symop_operation_xyz
  'x, y, z'

loop_
  _atom_site_type_symbol
  _atom_site_label
  _atom_site_symmetry_multiplicity
  _atom_site_fract_x
  _atom_site_fract_y
  _atom_site_fract_z
  _atom_site_occupancy
  Li  Li1       1.0  0.5647110800717314  0.19236777441551567  0.8871999993618402  1.0000
  O   O1        1.0  0.46706652665642423  0.10626920110727767  0.03661409854198894  1.0000
  O   O2        1.0  0.06299501107448435  0.8245443803691188  0.7277155448801622  1.0000
  O   O3        1.0  0.7448017076290512  0.5398592849516888  0.15534393189182794  1.0000
  O   O4        1.0  0.2500012996518066  0.9187056366100954  0.4371584169457776  1.0000
  O   O5        1.0  0.05797056964054548  0.40337622226877556  0.5107647237030761  1.0000
  O   O6        1.0  0.9758472558803948  0.1984473724823843  0.44453133654052834  1.0000
  O   O7        1.0  0.7722907101165415  0.9949184089892684  0.0705966891101859  1.0000
  O   O8        1.0  0.6715281555457686  0.914008292707841  0.12094019855385763  1.0000
