data_image0
_chemical_formula_structural       LiO8
_chemical_formula_sum              "Li1 O8"
_cell_length_a       5.249754507535302
_cell_length_b       5.413199314268996
_cell_length_c       5.41221408469246
_cell_angle_alpha    66.06793548132961
_cell_angle_beta     55.04984107024682
_cell_angle_gamma    55.053804050826955

_space_group_name_H-M_alt    "P 1"
_space_group_IT_number       1

loop_
  _space_group_symop_operation_xyz
  'x, y, z'

loop_
  _atom_site_type_symbol
  _atom_site_label
  _atom_site_symmetry_multiplicity
  _atom_site_fract_x
  _atom_site_fract_y
  _atom_site_fract_z
  _atom_site_occupancy
  Li  Li1       1.0  0.28637155037674944  0.28177836743857654  0.8245204761206821  1.0000
  O   O1        1.0  0.20296121589448468  0.6020035646513904  0.5918536581101748  1.0000
  O   O2        1.0  0.06735826906618314  0.005731131389461908  0.1257929091100607  1.0000
  O   O3        1.0  0.21285204431323734  0.8908007030152305  0.6675493492927664  1.0000
  O   O4        1.0  0.4435459531303625  0.4825348692161473  0.7402713140707959  1.0000
  O   O5        1.0  0.4291966070046831  0.719526974043653  0.6811899999219317  1.0000
  O   O6        1.0  0.5350728253827839  0.571907285790676  0.28576962677638207  1.0000
  O   O7        1.0  0.5206948770342876  0.15647379361081448  0.28063843946988243  1.0000
  O   O8        1.0  0.3642002748696811  0.15311813206706226  0.702951703279334  1.0000
