data_image0
_chemical_formula_structural       LiO8
_chemical_formula_sum              "Li1 O8"
_cell_length_a       5.249754507535302
_cell_length_b       5.413199314268996
_cell_length_c       5.41221408469246
_cell_angle_alpha    66.06793548132961
_cell_angle_beta     55.04984107024682
_cell_angle_gamma    55.053804050826955

_space_group_name_H-M_alt    "P 1"
_space_group_IT_number       1

loop_
  _space_group_symop_operation_xyz
  'x, y, z'

loop_
  _atom_site_type_symbol
  _atom_site_label
  _atom_site_symmetry_multiplicity
  _atom_site_fract_x
  _atom_site_fract_y
  _atom_site_fract_z
  _atom_site_occupancy
  Li  Li1       1.0  0.9936810063769315  0.5352534573338907  0.9230840210070816  1.0000
  O   O1        1.0  0.3978717107881593  0.36238395645546007  0.13162622811915625  1.0000
  O   O2        1.0  0.3167975586959404  0.9143836080174008  0.6442649842268331  1.0000
  O   O3        1.0  0.5134807007535045  0.9072882687427715  0.8494495045749275  1.0000
  O   O4        1.0  0.6300437847655473  0.9920945567740773  0.12469236464423972  1.0000
  O   O5        1.0  0.8462795292612952  0.5606582329296117  0.7335776998674781  1.0000
  O   O6        1.0  0.5901622508777611  0.40226999051648704  0.7359701222100146  1.0000
  O   O7        1.0  0.48534608569757154  0.22351712776830013  0.5841890146363014  1.0000
  O   O8        1.0  0.7978081199240972  0.14692394258656094  0.02205173756733525  1.0000
