data_image0
_chemical_formula_structural       LiO8
_chemical_formula_sum              "Li1 O8"
_cell_length_a       5.249754507535302
_cell_length_b       5.413199314268996
_cell_length_c       5.41221408469246
_cell_angle_alpha    66.06793548132961
_cell_angle_beta     55.04984107024682
_cell_angle_gamma    55.053804050826955

_space_group_name_H-M_alt    "P 1"
_space_group_IT_number       1

loop_
  _space_group_symop_operation_xyz
  'x, y, z'

loop_
  _atom_site_type_symbol
  _atom_site_label
  _atom_site_symmetry_multiplicity
  _atom_site_fract_x
  _atom_site_fract_y
  _atom_site_fract_z
  _atom_site_occupancy
  Li  Li1       1.0  0.3587141822587938  0.16329615442722556  0.9342430219898397  1.0000
  O   O1        1.0  0.8802729842154129  0.31009849891852426  0.8580674691280663  1.0000
  O   O2        1.0  0.26592170886942057  0.3324198416209576  0.3380093042108143  1.0000
  O   O3        1.0  0.1279007337910656  0.9786317760346961  0.4859931833628366  1.0000
  O   O4        1.0  0.8965208710508037  0.6611895555059828  0.14223897960520038  1.0000
  O   O5        1.0  0.19403383376485195  0.012464499172626375  0.5374168117208544  1.0000
  O   O6        1.0  0.836047366721567  0.10142842964278742  0.38775265119157787  1.0000
  O   O7        1.0  0.5046300213162667  0.16070500819013844  0.2263207179060771  1.0000
  O   O8        1.0  0.5884504390638803  0.4858940611023499  0.9555454092456905  1.0000
