data_image0
_chemical_formula_structural       LiO8
_chemical_formula_sum              "Li1 O8"
_cell_length_a       5.249754507535302
_cell_length_b       5.413199314268996
_cell_length_c       5.41221408469246
_cell_angle_alpha    66.06793548132961
_cell_angle_beta     55.04984107024682
_cell_angle_gamma    55.053804050826955

_space_group_name_H-M_alt    "P 1"
_space_group_IT_number       1

loop_
  _space_group_symop_operation_xyz
  'x, y, z'

loop_
  _atom_site_type_symbol
  _atom_site_label
  _atom_site_symmetry_multiplicity
  _atom_site_fract_x
  _atom_site_fract_y
  _atom_site_fract_z
  _atom_site_occupancy
  Li  Li1       1.0  0.0438844874137061  0.07068500015588697  0.9016678194178542  1.0000
  O   O1        1.0  0.19946359432100635  0.8008904252502429  0.05501834121334781  1.0000
  O   O2        1.0  0.7155303658906007  0.05711165268142526  0.5204127315617662  1.0000
  O   O3        1.0  0.8319930789572112  0.9612540849166962  0.4239092034462075  1.0000
  O   O4        1.0  0.8153341965599981  0.8172279827237361  0.8258404017687315  1.0000
  O   O5        1.0  0.32237399223333085  0.9452540273361425  0.7657769562670023  1.0000
  O   O6        1.0  0.9001613085388183  0.1489059712369709  0.35611359981954016  1.0000
  O   O7        1.0  0.7034084890875469  0.7033224175408286  0.25458962085259884  1.0000
  O   O8        1.0  0.5141824838687299  0.6355172143884111  0.7948445366232022  1.0000
