data_image0
_chemical_formula_structural       LiO8
_chemical_formula_sum              "Li1 O8"
_cell_length_a       5.249754507535302
_cell_length_b       5.413199314268996
_cell_length_c       5.41221408469246
_cell_angle_alpha    66.06793548132961
_cell_angle_beta     55.04984107024682
_cell_angle_gamma    55.053804050826955

_space_group_name_H-M_alt    "P 1"
_space_group_IT_number       1

loop_
  _space_group_symop_operation_xyz
  'x, y, z'

loop_
  _atom_site_type_symbol
  _atom_site_label
  _atom_site_symmetry_multiplicity
  _atom_site_fract_x
  _atom_site_fract_y
  _atom_site_fract_z
  _atom_site_occupancy
  Li  Li1       1.0  0.8723535686764734  0.5076056019993089  0.9885591662063362  1.0000
  O   O1        1.0  0.47630987215401177  0.01615818097256394  0.37886491300748304  1.0000
  O   O2        1.0  0.21894621449209595  0.6209922364867229  0.794986395471593  1.0000
  O   O3        1.0  0.9362228356404643  0.6357494932789649  0.9024569763925356  1.0000
  O   O4        1.0  0.2964317119933817  0.9529095080204684  0.6152178735219209  1.0000
  O   O5        1.0  0.33075343476715346  0.3695205105106325  0.9237409248370483  1.0000
  O   O6        1.0  0.49315781254588353  0.8478708069767222  0.5583436907056516  1.0000
  O   O7        1.0  0.781877469407771  0.6956336995338148  0.29767896025163765  1.0000
  O   O8        1.0  0.5948584246295887  0.31966812777196196  0.6208033492695668  1.0000
