data_image0
_chemical_formula_structural       LiO8
_chemical_formula_sum              "Li1 O8"
_cell_length_a       5.249754507535302
_cell_length_b       5.413199314268996
_cell_length_c       5.41221408469246
_cell_angle_alpha    66.06793548132961
_cell_angle_beta     55.04984107024682
_cell_angle_gamma    55.053804050826955

_space_group_name_H-M_alt    "P 1"
_space_group_IT_number       1

loop_
  _space_group_symop_operation_xyz
  'x, y, z'

loop_
  _atom_site_type_symbol
  _atom_site_label
  _atom_site_symmetry_multiplicity
  _atom_site_fract_x
  _atom_site_fract_y
  _atom_site_fract_z
  _atom_site_occupancy
  Li  Li1       1.0  0.7312524659179189  0.8985524562091314  0.5644642161362015  1.0000
  O   O1        1.0  0.9231037612080115  0.37822715004185614  0.5163424062021988  1.0000
  O   O2        1.0  0.5921720256014797  0.7767383214278993  0.18169043640175175  1.0000
  O   O3        1.0  0.7675008229611322  0.2488529657811771  0.7221518566279634  1.0000
  O   O4        1.0  0.8762381757410935  0.015209558231223497  0.8838922094237205  1.0000
  O   O5        1.0  0.040053742554704286  0.217083471735652  0.5449266175241405  1.0000
  O   O6        1.0  0.5272533025568968  0.2362875489159073  0.33156974168844044  1.0000
  O   O7        1.0  0.3031134061527796  0.517629502204052  0.22004552846092906  1.0000
  O   O8        1.0  0.2129557734458487  0.5539818302179427  0.056915662103861564  1.0000
