data_image0
_chemical_formula_structural       LiO8
_chemical_formula_sum              "Li1 O8"
_cell_length_a       5.249754507535302
_cell_length_b       5.413199314268996
_cell_length_c       5.41221408469246
_cell_angle_alpha    66.06793548132961
_cell_angle_beta     55.04984107024682
_cell_angle_gamma    55.053804050826955

_space_group_name_H-M_alt    "P 1"
_space_group_IT_number       1

loop_
  _space_group_symop_operation_xyz
  'x, y, z'

loop_
  _atom_site_type_symbol
  _atom_site_label
  _atom_site_symmetry_multiplicity
  _atom_site_fract_x
  _atom_site_fract_y
  _atom_site_fract_z
  _atom_site_occupancy
  Li  Li1       1.0  0.8326044492472846  0.8809652686477918  0.6851495219789889  1.0000
  O   O1        1.0  0.43274314647818457  0.6025810567264589  0.921014904932747  1.0000
  O   O2        1.0  0.11481096076868624  0.6573569865362101  0.003894805257967704  1.0000
  O   O3        1.0  0.43152176944069254  0.6768620242924186  0.5365634038682892  1.0000
  O   O4        1.0  0.7790826959653321  0.3967019219630892  0.582372136663984  1.0000
  O   O5        1.0  0.7810171115905646  0.17545080805859214  0.28773003031811406  1.0000
  O   O6        1.0  0.3955971162712597  0.3615410484020103  0.9851574596905972  1.0000
  O   O7        1.0  0.7578783399267515  0.5594496112574276  0.6271141385462116  1.0000
  O   O8        1.0  0.23926211570477207  0.16364580438136045  0.9833734548908168  1.0000
