data_image0
_chemical_formula_structural       LiO8
_chemical_formula_sum              "Li1 O8"
_cell_length_a       5.249754507535302
_cell_length_b       5.413199314268996
_cell_length_c       5.41221408469246
_cell_angle_alpha    66.06793548132961
_cell_angle_beta     55.04984107024682
_cell_angle_gamma    55.053804050826955

_space_group_name_H-M_alt    "P 1"
_space_group_IT_number       1

loop_
  _space_group_symop_operation_xyz
  'x, y, z'

loop_
  _atom_site_type_symbol
  _atom_site_label
  _atom_site_symmetry_multiplicity
  _atom_site_fract_x
  _atom_site_fract_y
  _atom_site_fract_z
  _atom_site_occupancy
  Li  Li1       1.0  0.20785540912089573  0.03358989490288877  0.8619936103147836  1.0000
  O   O1        1.0  0.5010903963101399  0.4062794207204945  0.39147013399642105  1.0000
  O   O2        1.0  0.47177073772937606  0.413877197708274  0.043150903890143866  1.0000
  O   O3        1.0  0.46188064392077166  0.6477425167486199  0.4071534314335139  1.0000
  O   O4        1.0  0.5603421355059339  0.10803456631472486  0.8397017229374057  1.0000
  O   O5        1.0  0.19830814880901926  0.782440062723623  0.2925457526789472  1.0000
  O   O6        1.0  0.5010227530331299  0.5981512409813323  0.27157057754280345  1.0000
  O   O7        1.0  0.038381552417150466  0.08932153098029971  0.16798519609047702  1.0000
  O   O8        1.0  0.7887729923620483  0.9328656341942008  0.7054251240988805  1.0000
