data_image0
_chemical_formula_structural       LiO8
_chemical_formula_sum              "Li1 O8"
_cell_length_a       5.249754507535302
_cell_length_b       5.413199314268996
_cell_length_c       5.41221408469246
_cell_angle_alpha    66.06793548132961
_cell_angle_beta     55.04984107024682
_cell_angle_gamma    55.053804050826955

_space_group_name_H-M_alt    "P 1"
_space_group_IT_number       1

loop_
  _space_group_symop_operation_xyz
  'x, y, z'

loop_
  _atom_site_type_symbol
  _atom_site_label
  _atom_site_symmetry_multiplicity
  _atom_site_fract_x
  _atom_site_fract_y
  _atom_site_fract_z
  _atom_site_occupancy
  Li  Li1       1.0  0.22703043456368732  0.9769144663921026  0.3151201798002674  1.0000
  O   O1        1.0  0.9140779432455766  0.38861219162890137  0.5760819247582889  1.0000
  O   O2        1.0  0.499636573256741  0.8003389994052024  0.49377104251617254  1.0000
  O   O3        1.0  0.8785050249384909  0.79110819706694  0.5533583748896618  1.0000
  O   O4        1.0  0.5716865348458917  0.2699819073609433  0.24563771577423665  1.0000
  O   O5        1.0  0.32010263802717986  0.7791057131464179  0.1558582591451838  1.0000
  O   O6        1.0  0.7749697630616765  0.045084583442935866  0.7130264430657931  1.0000
  O   O7        1.0  0.032388820526488615  0.5801446135071524  0.16822988934446315  1.0000
  O   O8        1.0  0.6119802802845218  0.36564217810564337  0.3869186899368682  1.0000
