data_image0
_chemical_formula_structural       LiO8
_chemical_formula_sum              "Li1 O8"
_cell_length_a       5.249754507535302
_cell_length_b       5.413199314268996
_cell_length_c       5.41221408469246
_cell_angle_alpha    66.06793548132961
_cell_angle_beta     55.04984107024682
_cell_angle_gamma    55.053804050826955

_space_group_name_H-M_alt    "P 1"
_space_group_IT_number       1

loop_
  _space_group_symop_operation_xyz
  'x, y, z'

loop_
  _atom_site_type_symbol
  _atom_site_label
  _atom_site_symmetry_multiplicity
  _atom_site_fract_x
  _atom_site_fract_y
  _atom_site_fract_z
  _atom_site_occupancy
  Li  Li1       1.0  0.5775089433982146  0.5821466854575448  0.7327161018075401  1.0000
  O   O1        1.0  0.7770753099953893  0.7849692899797116  0.011143441544490429  1.0000
  O   O2        1.0  0.7678119398186318  0.5999829231639211  0.4198182236996928  1.0000
  O   O3        1.0  0.44834603569335485  0.7059599363131142  0.0030230692869821496  1.0000
  O   O4        1.0  0.23238163518747257  0.8214094273232574  0.7142509821268561  1.0000
  O   O5        1.0  0.4214347332745092  0.3720211745383164  0.44253943001207574  1.0000
  O   O6        1.0  0.5515251877505724  0.23021028782127928  0.472218674881276  1.0000
  O   O7        1.0  0.2638681587572338  0.5886557047288843  0.9635848442386035  1.0000
  O   O8        1.0  0.8139268791284309  0.2647339368184589  0.29927031312171337  1.0000
