data_image0
_chemical_formula_structural       LiO8
_chemical_formula_sum              "Li1 O8"
_cell_length_a       5.249754507535302
_cell_length_b       5.413199314268996
_cell_length_c       5.41221408469246
_cell_angle_alpha    66.06793548132961
_cell_angle_beta     55.04984107024682
_cell_angle_gamma    55.053804050826955

_space_group_name_H-M_alt    "P 1"
_space_group_IT_number       1

loop_
  _space_group_symop_operation_xyz
  'x, y, z'

loop_
  _atom_site_type_symbol
  _atom_site_label
  _atom_site_symmetry_multiplicity
  _atom_site_fract_x
  _atom_site_fract_y
  _atom_site_fract_z
  _atom_site_occupancy
  Li  Li1       1.0  0.6202058927327769  0.7581074453896726  0.9672717754866724  1.0000
  O   O1        1.0  0.5763291634126313  0.02186012594507325  0.3579114991679688  1.0000
  O   O2        1.0  0.4205248400950836  0.9237728464083546  0.08110526971847065  1.0000
  O   O3        1.0  0.8329787455368773  0.6490182430217786  0.7903922021958834  1.0000
  O   O4        1.0  0.9130424880849937  0.6228482843509182  0.07477843423962938  1.0000
  O   O5        1.0  0.8242669969454948  0.08008244709520795  0.489928891036012  1.0000
  O   O6        1.0  0.10268243735694682  0.15986132580003698  0.2265634802643426  1.0000
  O   O7        1.0  0.013053020100741719  0.047106073276502514  0.17514511566265867  1.0000
  O   O8        1.0  0.957892640620237  0.06839233341483464  0.6533949179221512  1.0000
