data_image0
_chemical_formula_structural       LiO8
_chemical_formula_sum              "Li1 O8"
_cell_length_a       5.249754507535302
_cell_length_b       5.413199314268996
_cell_length_c       5.41221408469246
_cell_angle_alpha    66.06793548132961
_cell_angle_beta     55.04984107024682
_cell_angle_gamma    55.053804050826955

_space_group_name_H-M_alt    "P 1"
_space_group_IT_number       1

loop_
  _space_group_symop_operation_xyz
  'x, y, z'

loop_
  _atom_site_type_symbol
  _atom_site_label
  _atom_site_symmetry_multiplicity
  _atom_site_fract_x
  _atom_site_fract_y
  _atom_site_fract_z
  _atom_site_occupancy
  Li  Li1       1.0  0.9265800928702106  0.3967540563349168  0.4443506588830317  1.0000
  O   O1        1.0  0.02928841771921542  0.6372424738834628  0.4005594166683544  1.0000
  O   O2        1.0  0.3964598723227297  0.678815861956874  0.7205897207973493  1.0000
  O   O3        1.0  0.3783015504557099  0.3441785008108056  0.8513447344890448  1.0000
  O   O4        1.0  0.8731625676412609  0.3873485613727432  0.0783805992624842  1.0000
  O   O5        1.0  0.2719652887164594  0.4395844911881319  0.09885942057023556  1.0000
  O   O6        1.0  0.32782940069194844  0.5773941668097686  0.5757473614958428  1.0000
  O   O7        1.0  0.3371038977268981  0.0011121132397349243  0.2376007792095436  1.0000
  O   O8        1.0  0.9700481813428237  0.31722675413655654  0.4416140801898578  1.0000
