data_image0
_chemical_formula_structural       LiO8
_chemical_formula_sum              "Li1 O8"
_cell_length_a       5.249754507535302
_cell_length_b       5.413199314268996
_cell_length_c       5.41221408469246
_cell_angle_alpha    66.06793548132961
_cell_angle_beta     55.04984107024682
_cell_angle_gamma    55.053804050826955

_space_group_name_H-M_alt    "P 1"
_space_group_IT_number       1

loop_
  _space_group_symop_operation_xyz
  'x, y, z'

loop_
  _atom_site_type_symbol
  _atom_site_label
  _atom_site_symmetry_multiplicity
  _atom_site_fract_x
  _atom_site_fract_y
  _atom_site_fract_z
  _atom_site_occupancy
  Li  Li1       1.0  0.2390039006935325  0.7570053308217268  0.5392788586094603  1.0000
  O   O1        1.0  0.27329997750442203  0.4275206498991082  0.25805399158229037  1.0000
  O   O2        1.0  0.6169318692763142  0.4303208961015086  0.8258664631550978  1.0000
  O   O3        1.0  0.1748621031987483  0.6610406508846438  0.18635402713184135  1.0000
  O   O4        1.0  0.21906511266827522  0.8433815595105401  0.18842995824996223  1.0000
  O   O5        1.0  0.21466123247536473  0.44700951306359116  0.6681244963386526  1.0000
  O   O6        1.0  0.3466765458668579  0.5729598264154312  0.07884003020938302  1.0000
  O   O7        1.0  0.2131751015508918  0.04515174628397034  0.6824075721636156  1.0000
  O   O8        1.0  0.32138339734229393  0.03972732916749955  0.3285056818429375  1.0000
