data_image0
_chemical_formula_structural       LiO8
_chemical_formula_sum              "Li1 O8"
_cell_length_a       5.249754507535302
_cell_length_b       5.413199314268996
_cell_length_c       5.41221408469246
_cell_angle_alpha    66.06793548132961
_cell_angle_beta     55.04984107024682
_cell_angle_gamma    55.053804050826955

_space_group_name_H-M_alt    "P 1"
_space_group_IT_number       1

loop_
  _space_group_symop_operation_xyz
  'x, y, z'

loop_
  _atom_site_type_symbol
  _atom_site_label
  _atom_site_symmetry_multiplicity
  _atom_site_fract_x
  _atom_site_fract_y
  _atom_site_fract_z
  _atom_site_occupancy
  Li  Li1       1.0  0.37938803552519573  0.17026479917447546  0.005887338194227709  1.0000
  O   O1        1.0  0.9951274167251256  0.6805628919550486  0.32861618637556766  1.0000
  O   O2        1.0  0.31933483388934114  0.3755821175919145  0.27534498990280554  1.0000
  O   O3        1.0  0.7393279752849224  0.3520087794896085  0.47586625756112255  1.0000
  O   O4        1.0  0.5804386491021525  0.15123508569489275  0.700495554039648  1.0000
  O   O5        1.0  0.859133492908839  0.9665728959954052  0.15791101297387655  1.0000
  O   O6        1.0  0.5969378974813351  0.38735462605572124  0.3753003318265975  1.0000
  O   O7        1.0  0.6333239028407647  0.9746373507779875  0.2034563489059522  1.0000
  O   O8        1.0  0.7623209683544925  0.04044478211071123  0.031338811754462625  1.0000
