data_image0
_chemical_formula_structural       Zr4O8
_chemical_formula_sum              "Zr4 O8"
_cell_length_a       5.1539878367877705
_cell_length_b       5.22810872
_cell_length_c       5.329696159145639
_cell_angle_alpha    90.0
_cell_angle_beta     99.43692258379697
_cell_angle_gamma    90.0

_space_group_name_H-M_alt    "P 1"
_space_group_IT_number       1

loop_
  _space_group_symop_operation_xyz
  'x, y, z'

loop_
  _atom_site_type_symbol
  _atom_site_label
  _atom_site_symmetry_multiplicity
  _atom_site_fract_x
  _atom_site_fract_y
  _atom_site_fract_z
  _atom_site_occupancy
  Zr  Zr1       1.0  0.7402699233055192  0.002257843507734947  0.2628529662647132  1.0000
  Zr  Zr2       1.0  0.7028477656018204  0.02037298548760802  0.28898962660057714  1.0000
  Zr  Zr3       1.0  0.5722470483880615  0.6245637064700178  0.8052588281227493  1.0000
  Zr  Zr4       1.0  0.35572242876404925  0.09299400460117102  0.5812618670367478  1.0000
  O   O1        1.0  0.06247975389332794  0.20130435504292166  0.11610749263972231  1.0000
  O   O2        1.0  0.04927267737605945  0.9552975916620312  0.4717188967453616  1.0000
  O   O3        1.0  0.38004760630232326  0.6719303326110548  0.6714600192763385  1.0000
  O   O4        1.0  0.9396067616066972  0.9186899391082954  0.9010521984670845  1.0000
  O   O5        1.0  0.7386089888815199  0.1554219858375916  0.39202450724267246  1.0000
  O   O6        1.0  0.9293567493093278  0.3813811739010333  0.44868838577498593  1.0000
  O   O7        1.0  0.13576058852102335  0.6716865893199184  0.985167188046443  1.0000
  O   O8        1.0  0.7223386263184928  0.45623306103055583  0.3732897119604104  1.0000
