data_image0
_chemical_formula_structural       Zr4O8
_chemical_formula_sum              "Zr4 O8"
_cell_length_a       5.1539878367877705
_cell_length_b       5.22810872
_cell_length_c       5.329696159145639
_cell_angle_alpha    90.0
_cell_angle_beta     99.43692258379697
_cell_angle_gamma    90.0

_space_group_name_H-M_alt    "P 1"
_space_group_IT_number       1

loop_
  _space_group_symop_operation_xyz
  'x, y, z'

loop_
  _atom_site_type_symbol
  _atom_site_label
  _atom_site_symmetry_multiplicity
  _atom_site_fract_x
  _atom_site_fract_y
  _atom_site_fract_z
  _atom_site_occupancy
  Zr  Zr1       1.0  0.18311186543037294  0.8651772969598923  0.2165392039571472  1.0000
  Zr  Zr2       1.0  0.908825896050713  0.9691399345991965  0.0922483573013011  1.0000
  Zr  Zr3       1.0  0.4032266437651053  0.34114666883547073  0.10545358226641  1.0000
  Zr  Zr4       1.0  0.9123987426136355  0.41491881033479316  0.8118772849408984  1.0000
  O   O1        1.0  0.4730926651111744  0.020992443643741865  0.9825664143104262  1.0000
  O   O2        1.0  0.09307842975405833  0.44371484737104794  0.9405699459117649  1.0000
  O   O3        1.0  0.10027311178043163  0.9731654295089669  0.0338979357752649  1.0000
  O   O4        1.0  0.3759843436584678  0.851979453409621  0.12491071393154485  1.0000
  O   O5        1.0  0.4887165577421957  0.7147124092248589  0.7251967230096028  1.0000
  O   O6        1.0  0.7732567414793046  0.8401262285224718  0.4973380346180578  1.0000
  O   O7        1.0  0.8189663363455111  0.1833345914291975  0.5071943435697666  1.0000
  O   O8        1.0  0.1548722979356949  0.2986844219023119  0.6723189215112768  1.0000
