data_image0
_chemical_formula_structural       Zr4O8
_chemical_formula_sum              "Zr4 O8"
_cell_length_a       5.1539878367877705
_cell_length_b       5.22810872
_cell_length_c       5.329696159145639
_cell_angle_alpha    90.0
_cell_angle_beta     99.43692258379697
_cell_angle_gamma    90.0

_space_group_name_H-M_alt    "P 1"
_space_group_IT_number       1

loop_
  _space_group_symop_operation_xyz
  'x, y, z'

loop_
  _atom_site_type_symbol
  _atom_site_label
  _atom_site_symmetry_multiplicity
  _atom_site_fract_x
  _atom_site_fract_y
  _atom_site_fract_z
  _atom_site_occupancy
  Zr  Zr1       1.0  0.29047875237162835  0.5377626997797575  0.5744031398128158  1.0000
  Zr  Zr2       1.0  0.5884637910498531  0.5231239104834895  0.09840657817148113  1.0000
  Zr  Zr3       1.0  0.8036929606190619  0.1107867208186053  0.7657026983350038  1.0000
  Zr  Zr4       1.0  0.9684909383338853  0.03414307357966199  0.4725858058141308  1.0000
  O   O1        1.0  0.26369999882844475  0.6044474983468064  0.8022788899629782  1.0000
  O   O2        1.0  0.7790086272342709  0.81395789092678  0.6561469236470019  1.0000
  O   O3        1.0  0.09455272732527398  0.3892177839373616  0.23913995338333294  1.0000
  O   O4        1.0  0.7736843244137747  0.9219212397257692  0.47388217842252267  1.0000
  O   O5        1.0  0.46835832915342834  0.8593321865499419  0.7113831355726032  1.0000
  O   O6        1.0  0.4597353029617075  0.32465692187901607  0.5886410579435442  1.0000
  O   O7        1.0  0.3187655897565769  0.7514448815004539  0.6881903802970051  1.0000
  O   O8        1.0  0.5409251894739953  0.7645145475933717  0.16757473168100567  1.0000
