data_image0
_chemical_formula_structural       Zr4O8
_chemical_formula_sum              "Zr4 O8"
_cell_length_a       5.1539878367877705
_cell_length_b       5.22810872
_cell_length_c       5.329696159145639
_cell_angle_alpha    90.0
_cell_angle_beta     99.43692258379697
_cell_angle_gamma    90.0

_space_group_name_H-M_alt    "P 1"
_space_group_IT_number       1

loop_
  _space_group_symop_operation_xyz
  'x, y, z'

loop_
  _atom_site_type_symbol
  _atom_site_label
  _atom_site_symmetry_multiplicity
  _atom_site_fract_x
  _atom_site_fract_y
  _atom_site_fract_z
  _atom_site_occupancy
  Zr  Zr1       1.0  0.07828520283980467  0.6530477689402687  0.6079520508425773  1.0000
  Zr  Zr2       1.0  0.04393665404334968  0.33595253565903294  0.377087517555994  1.0000
  Zr  Zr3       1.0  0.9725443433014875  0.4298063439725617  0.09795277364041444  1.0000
  Zr  Zr4       1.0  0.9921360711672939  0.09106977562821328  0.30446413366481195  1.0000
  O   O1        1.0  0.33707775140696583  0.6102459127388187  0.6965827154235384  1.0000
  O   O2        1.0  0.750893301726336  0.37730355956315975  0.8878675440133144  1.0000
  O   O3        1.0  0.20513785156712672  0.9164583513100446  0.6419190752590538  1.0000
  O   O4        1.0  0.549002922372388  0.5719332741923537  0.6398261805620002  1.0000
  O   O5        1.0  0.9704704580762673  0.6402413396982851  0.46101908670219416  1.0000
  O   O6        1.0  0.578209343969533  0.4232493784116329  0.21872966960223283  1.0000
  O   O7        1.0  0.39732631361702175  0.7102609856377065  0.1694866029605393  1.0000
  O   O8        1.0  0.7364267166319962  0.9815538765753509  0.22720171821539203  1.0000
