data_image0
_chemical_formula_structural       Zr4O8
_chemical_formula_sum              "Zr4 O8"
_cell_length_a       5.1539878367877705
_cell_length_b       5.22810872
_cell_length_c       5.329696159145639
_cell_angle_alpha    90.0
_cell_angle_beta     99.43692258379697
_cell_angle_gamma    90.0

_space_group_name_H-M_alt    "P 1"
_space_group_IT_number       1

loop_
  _space_group_symop_operation_xyz
  'x, y, z'

loop_
  _atom_site_type_symbol
  _atom_site_label
  _atom_site_symmetry_multiplicity
  _atom_site_fract_x
  _atom_site_fract_y
  _atom_site_fract_z
  _atom_site_occupancy
  Zr  Zr1       1.0  0.5898284618058627  0.5322288176900756  0.5034103679084794  1.0000
  Zr  Zr2       1.0  0.7136863195412904  0.5397274594005559  0.1896572997664263  1.0000
  Zr  Zr3       1.0  0.829950353040708  0.8347094343302324  0.33067495712986883  1.0000
  Zr  Zr4       1.0  0.10198785079195316  0.5937133570287534  0.4908381528959289  1.0000
  O   O1        1.0  0.9640334092827842  0.9568098507473053  0.882193255926703  1.0000
  O   O2        1.0  0.2770381108443658  0.44803278058941487  0.7582211096318545  1.0000
  O   O3        1.0  0.6057585815964082  0.5058068601516368  0.31412361967661795  1.0000
  O   O4        1.0  0.8473010781860628  0.6778750842341759  0.71413066729475  1.0000
  O   O5        1.0  0.24114875537009794  0.15961373638208443  0.8194139957040383  1.0000
  O   O6        1.0  0.16253492680229442  0.6026574232059545  0.05728165025108467  1.0000
  O   O7        1.0  0.6004425743342203  0.9636293779360336  0.12119074642050798  1.0000
  O   O8        1.0  0.5431825578376426  0.6289698989418007  0.8306480432672458  1.0000
