data_image0
_chemical_formula_structural       Zr4O8
_chemical_formula_sum              "Zr4 O8"
_cell_length_a       5.1539878367877705
_cell_length_b       5.22810872
_cell_length_c       5.329696159145639
_cell_angle_alpha    90.0
_cell_angle_beta     99.43692258379697
_cell_angle_gamma    90.0

_space_group_name_H-M_alt    "P 1"
_space_group_IT_number       1

loop_
  _space_group_symop_operation_xyz
  'x, y, z'

loop_
  _atom_site_type_symbol
  _atom_site_label
  _atom_site_symmetry_multiplicity
  _atom_site_fract_x
  _atom_site_fract_y
  _atom_site_fract_z
  _atom_site_occupancy
  Zr  Zr1       1.0  0.5441500594420514  0.4267287862959517  0.46665945083910754  1.0000
  Zr  Zr2       1.0  0.21620928259189753  0.995662081094018  0.21878742895606962  1.0000
  Zr  Zr3       1.0  0.42515634505686783  0.3293741661851173  0.2871237728335352  1.0000
  Zr  Zr4       1.0  0.07523528926305434  0.40336312612557546  0.28907972737850507  1.0000
  O   O1        1.0  0.705633493541697  0.3109477317068894  0.5398637729184284  1.0000
  O   O2        1.0  0.6715523826390282  0.0030496428539938947  0.3796982821982162  1.0000
  O   O3        1.0  0.5225668204151646  0.8808481438545797  0.45505759097364873  1.0000
  O   O4        1.0  0.9366499055659769  0.27680240130292866  0.9919435457491792  1.0000
  O   O5        1.0  0.4130083743405759  0.16443360823861575  0.8360612948279744  1.0000
  O   O6        1.0  0.5747724656836866  0.34274278389556656  0.8286682081490717  1.0000
  O   O7        1.0  0.594796077994098  0.13256636701465108  0.2378363927063667  1.0000
  O   O8        1.0  0.6581915527171063  0.40070472600866225  0.8731195753221179  1.0000
