data_image0
_chemical_formula_structural       Zr4O8
_chemical_formula_sum              "Zr4 O8"
_cell_length_a       5.1539878367877705
_cell_length_b       5.22810872
_cell_length_c       5.329696159145639
_cell_angle_alpha    90.0
_cell_angle_beta     99.43692258379697
_cell_angle_gamma    90.0

_space_group_name_H-M_alt    "P 1"
_space_group_IT_number       1

loop_
  _space_group_symop_operation_xyz
  'x, y, z'

loop_
  _atom_site_type_symbol
  _atom_site_label
  _atom_site_symmetry_multiplicity
  _atom_site_fract_x
  _atom_site_fract_y
  _atom_site_fract_z
  _atom_site_occupancy
  Zr  Zr1       1.0  0.7936372946752024  0.9786120084855288  0.4911494262193976  1.0000
  Zr  Zr2       1.0  0.687494220807757  0.015440396375002052  0.9676723071763784  1.0000
  Zr  Zr3       1.0  0.6793559706464549  0.5900867810185098  0.7139641522836104  1.0000
  Zr  Zr4       1.0  0.42792389089133764  0.6568479810937031  0.5899672214611531  1.0000
  O   O1        1.0  0.6309053277788905  0.905144652338123  0.7021421014351787  1.0000
  O   O2        1.0  0.4725424710499464  0.8676858166612504  0.43466473955749474  1.0000
  O   O3        1.0  0.8609101873978626  0.5825867499074491  0.7052447205735817  1.0000
  O   O4        1.0  0.004817101616040986  0.7956740678761758  0.8080329908994057  1.0000
  O   O5        1.0  0.34407478140076364  0.07219496915227808  0.29260410509469637  1.0000
  O   O6        1.0  0.4550489793415977  0.3914639483147724  0.5080325429996364  1.0000
  O   O7        1.0  0.3628275311193718  0.017028637214348663  0.16239698630951693  1.0000
  O   O8        1.0  0.6076084123551913  0.19355314948416869  0.2522015392169834  1.0000
