data_image0
_chemical_formula_structural       Zr4O8
_chemical_formula_sum              "Zr4 O8"
_cell_length_a       5.1539878367877705
_cell_length_b       5.22810872
_cell_length_c       5.329696159145639
_cell_angle_alpha    90.0
_cell_angle_beta     99.43692258379697
_cell_angle_gamma    90.0

_space_group_name_H-M_alt    "P 1"
_space_group_IT_number       1

loop_
  _space_group_symop_operation_xyz
  'x, y, z'

loop_
  _atom_site_type_symbol
  _atom_site_label
  _atom_site_symmetry_multiplicity
  _atom_site_fract_x
  _atom_site_fract_y
  _atom_site_fract_z
  _atom_site_occupancy
  Zr  Zr1       1.0  0.7049598238638861  0.7161482680929652  0.6367036070882808  1.0000
  Zr  Zr2       1.0  0.89143848307544  0.8217829889897055  0.5601113693418327  1.0000
  Zr  Zr3       1.0  0.12284880903358975  0.43680428628979584  0.8335216965041032  1.0000
  Zr  Zr4       1.0  0.12756826642620656  0.14381720721309854  0.057935715522127396  1.0000
  O   O1        1.0  0.3107050502602009  0.6818948670887952  0.7600363852037546  1.0000
  O   O2        1.0  0.0006014206533961897  0.9006393740137355  0.7727711370485117  1.0000
  O   O3        1.0  0.14988329232576092  0.12501926772823957  0.4981733197403386  1.0000
  O   O4        1.0  0.5875980302505082  0.14492067565267064  0.039204376081677594  1.0000
  O   O5        1.0  0.018395999142917674  0.34536110475193027  0.23086990463593438  1.0000
  O   O6        1.0  0.5993640340524848  0.7685314236742578  0.006274909849814492  1.0000
  O   O7        1.0  0.8113718349567236  0.35505934289419905  0.3461820732822005  1.0000
  O   O8        1.0  0.1056475292034822  0.7599822762370918  0.081062590338842  1.0000
