data_image0
_chemical_formula_structural       Zr4O8
_chemical_formula_sum              "Zr4 O8"
_cell_length_a       5.1539878367877705
_cell_length_b       5.22810872
_cell_length_c       5.329696159145639
_cell_angle_alpha    90.0
_cell_angle_beta     99.43692258379697
_cell_angle_gamma    90.0

_space_group_name_H-M_alt    "P 1"
_space_group_IT_number       1

loop_
  _space_group_symop_operation_xyz
  'x, y, z'

loop_
  _atom_site_type_symbol
  _atom_site_label
  _atom_site_symmetry_multiplicity
  _atom_site_fract_x
  _atom_site_fract_y
  _atom_site_fract_z
  _atom_site_occupancy
  Zr  Zr1       1.0  0.49654312346004637  0.41224511338996095  0.2783528172664109  1.0000
  Zr  Zr2       1.0  0.8114963404608275  0.8264843449989172  0.5812462486696539  1.0000
  Zr  Zr3       1.0  0.08753825576997443  0.9407325655903382  0.012701931405878497  1.0000
  Zr  Zr4       1.0  0.6604027398590286  0.9611000634765983  0.05168613032767411  1.0000
  O   O1        1.0  0.09065404655254383  0.09630481899570853  0.4976658768297568  1.0000
  O   O2        1.0  0.045950295253692985  0.5308149347071307  0.17753908469108914  1.0000
  O   O3        1.0  0.15936735187834117  0.6161830215985233  0.4573122117271018  1.0000
  O   O4        1.0  0.6383571708127214  0.8064763476958206  0.34311927796531627  1.0000
  O   O5        1.0  0.38777267868675125  0.7077540977645214  0.8991554947698006  1.0000
  O   O6        1.0  0.36265718048973383  0.1264919986857933  0.22597167502824433  1.0000
  O   O7        1.0  0.6500267519030274  0.7557949054861677  0.9572536705617125  1.0000
  O   O8        1.0  0.7499037202052694  0.500946798751277  0.503536285825076  1.0000
