data_image0
_chemical_formula_structural       Zr4O8
_chemical_formula_sum              "Zr4 O8"
_cell_length_a       5.1539878367877705
_cell_length_b       5.22810872
_cell_length_c       5.329696159145639
_cell_angle_alpha    90.0
_cell_angle_beta     99.43692258379697
_cell_angle_gamma    90.0

_space_group_name_H-M_alt    "P 1"
_space_group_IT_number       1

loop_
  _space_group_symop_operation_xyz
  'x, y, z'

loop_
  _atom_site_type_symbol
  _atom_site_label
  _atom_site_symmetry_multiplicity
  _atom_site_fract_x
  _atom_site_fract_y
  _atom_site_fract_z
  _atom_site_occupancy
  Zr  Zr1       1.0  0.8448479919088321  0.7486447811698582  0.6520971754295566  1.0000
  Zr  Zr2       1.0  0.2978773400229695  0.2536412419348877  0.30488077642366296  1.0000
  Zr  Zr3       1.0  0.34358586977134564  0.17734002553462958  0.3377589871993676  1.0000
  Zr  Zr4       1.0  0.8690054049382758  0.8916846955571822  0.2837173821867829  1.0000
  O   O1        1.0  0.8875614389185635  0.502229724200653  0.7069235866742858  1.0000
  O   O2        1.0  0.7305059129156461  0.7895746866001758  0.05833516744427314  1.0000
  O   O3        1.0  0.19376769190498777  0.20533200260326367  0.4189255704612691  1.0000
  O   O4        1.0  0.33237302454082496  0.18903051214972777  0.14539426596732596  1.0000
  O   O5        1.0  0.5840491031678781  0.823644272831551  0.24014962949030405  1.0000
  O   O6        1.0  0.044696638954953016  0.022735109595792835  0.3324406260684243  1.0000
  O   O7        1.0  0.8188384308818488  0.682783407915597  0.834721027493714  1.0000
  O   O8        1.0  0.935159982730748  0.9147727353277002  0.35014953999273146  1.0000
