data_image0
_chemical_formula_structural       Zr4O8
_chemical_formula_sum              "Zr4 O8"
_cell_length_a       5.1539878367877705
_cell_length_b       5.22810872
_cell_length_c       5.329696159145639
_cell_angle_alpha    90.0
_cell_angle_beta     99.43692258379697
_cell_angle_gamma    90.0

_space_group_name_H-M_alt    "P 1"
_space_group_IT_number       1

loop_
  _space_group_symop_operation_xyz
  'x, y, z'

loop_
  _atom_site_type_symbol
  _atom_site_label
  _atom_site_symmetry_multiplicity
  _atom_site_fract_x
  _atom_site_fract_y
  _atom_site_fract_z
  _atom_site_occupancy
  Zr  Zr1       1.0  0.3407745767791839  0.694321499395004  0.4932759561689206  1.0000
  Zr  Zr2       1.0  0.43550313600384527  0.6718914801219107  0.3570764140794571  1.0000
  Zr  Zr3       1.0  0.5072193557638531  0.09618541639171063  0.422192746263919  1.0000
  Zr  Zr4       1.0  0.6212297628592243  0.06992694139801525  0.6162070627046834  1.0000
  O   O1        1.0  0.19533732611255417  0.23757287599150256  0.39390967469881133  1.0000
  O   O2        1.0  0.9656523877816952  0.6175267632849426  0.5055099737195654  1.0000
  O   O3        1.0  0.6087803025744201  0.19505312668055552  0.9582704453476629  1.0000
  O   O4        1.0  0.7159507058758852  0.9652286088307545  0.6945850194968841  1.0000
  O   O5        1.0  0.7733015839360675  0.43702621172512934  0.7029790872665806  1.0000
  O   O6        1.0  0.05146518654717447  0.10081892696038608  0.43742294886621824  1.0000
  O   O7        1.0  0.9166769566898587  0.7034634059691509  0.7807663670167848  1.0000
  O   O8        1.0  0.5739387669714198  0.9449142567755828  0.9001201094522955  1.0000
