data_image0
_chemical_formula_structural       Zr4O8
_chemical_formula_sum              "Zr4 O8"
_cell_length_a       5.1539878367877705
_cell_length_b       5.22810872
_cell_length_c       5.329696159145639
_cell_angle_alpha    90.0
_cell_angle_beta     99.43692258379697
_cell_angle_gamma    90.0

_space_group_name_H-M_alt    "P 1"
_space_group_IT_number       1

loop_
  _space_group_symop_operation_xyz
  'x, y, z'

loop_
  _atom_site_type_symbol
  _atom_site_label
  _atom_site_symmetry_multiplicity
  _atom_site_fract_x
  _atom_site_fract_y
  _atom_site_fract_z
  _atom_site_occupancy
  Zr  Zr1       1.0  0.9649175605270335  0.22561336173458457  0.057626043947028194  1.0000
  Zr  Zr2       1.0  0.13136430099044105  0.6389792440462383  0.4141687891363732  1.0000
  Zr  Zr3       1.0  0.19793492575968807  0.060241544968094196  0.46959453307410826  1.0000
  Zr  Zr4       1.0  0.557364647004797  0.9616931486569893  0.7480337252242037  1.0000
  O   O1        1.0  0.78547301660074  0.2604587889983776  0.7062994865517158  1.0000
  O   O2        1.0  0.8076670371591206  0.5704269730999982  0.27605202182149924  1.0000
  O   O3        1.0  0.28504682184312813  0.3940519261368607  0.840806219303678  1.0000
  O   O4        1.0  0.3758599235805704  0.5985942132583566  0.6540867776964099  1.0000
  O   O5        1.0  0.13360129284943412  0.7939521490710426  0.41336782232778857  1.0000
  O   O6        1.0  0.35925198457808705  0.7640745037928838  0.6065217809066983  1.0000
  O   O7        1.0  0.4691337258249604  0.38264125381799374  0.9689641835099732  1.0000
  O   O8        1.0  0.817987987558439  0.3903490819124542  0.40688030985573675  1.0000
