data_image0
_chemical_formula_structural       Zr4O8
_chemical_formula_sum              "Zr4 O8"
_cell_length_a       5.1539878367877705
_cell_length_b       5.22810872
_cell_length_c       5.329696159145639
_cell_angle_alpha    90.0
_cell_angle_beta     99.43692258379697
_cell_angle_gamma    90.0

_space_group_name_H-M_alt    "P 1"
_space_group_IT_number       1

loop_
  _space_group_symop_operation_xyz
  'x, y, z'

loop_
  _atom_site_type_symbol
  _atom_site_label
  _atom_site_symmetry_multiplicity
  _atom_site_fract_x
  _atom_site_fract_y
  _atom_site_fract_z
  _atom_site_occupancy
  Zr  Zr1       1.0  0.907338005459918  0.8027709567759249  0.3750602737049595  1.0000
  Zr  Zr2       1.0  0.8698234362100514  0.4450249795186849  0.32441038690357615  1.0000
  Zr  Zr3       1.0  0.9663399872911054  0.28724678219110045  0.16320955622865974  1.0000
  Zr  Zr4       1.0  0.21149599548766487  0.3086062823958491  0.6005452483713389  1.0000
  O   O1        1.0  0.8367998653118605  0.5734677432997799  0.690944044599493  1.0000
  O   O2        1.0  0.41316103571182694  0.17650178409778317  0.0779503655038769  1.0000
  O   O3        1.0  0.4001032494477901  0.07655463495505899  0.6543551633658709  1.0000
  O   O4        1.0  0.13873025492450797  0.16913415699141154  0.15021262369483424  1.0000
  O   O5        1.0  0.6556485962088221  0.7117242157516177  0.7990062106074234  1.0000
  O   O6        1.0  0.4329479493713855  0.5526133372281978  0.36929987703496003  1.0000
  O   O7        1.0  0.02714496596435456  0.7344377452984192  0.5014300746558291  1.0000
  O   O8        1.0  0.7421067573541702  0.3026210680913266  0.6493618300615789  1.0000
