data_image0
_chemical_formula_structural       Zr4O8
_chemical_formula_sum              "Zr4 O8"
_cell_length_a       5.1539878367877705
_cell_length_b       5.22810872
_cell_length_c       5.329696159145639
_cell_angle_alpha    90.0
_cell_angle_beta     99.43692258379697
_cell_angle_gamma    90.0

_space_group_name_H-M_alt    "P 1"
_space_group_IT_number       1

loop_
  _space_group_symop_operation_xyz
  'x, y, z'

loop_
  _atom_site_type_symbol
  _atom_site_label
  _atom_site_symmetry_multiplicity
  _atom_site_fract_x
  _atom_site_fract_y
  _atom_site_fract_z
  _atom_site_occupancy
  Zr  Zr1       1.0  0.7401718237070982  0.7194482758448508  0.21632292600211755  1.0000
  Zr  Zr2       1.0  0.5166272002054733  0.847720670011606  0.028119694938016693  1.0000
  Zr  Zr3       1.0  0.1788333372990607  0.6094890669222477  0.08773132951101204  1.0000
  Zr  Zr4       1.0  0.3915253934483358  0.9466502973649824  0.2640737345749571  1.0000
  O   O1        1.0  0.44479955636434454  0.21295655920455658  0.3630012306187034  1.0000
  O   O2        1.0  0.38721173333819836  0.8193429024624734  0.4482862149830087  1.0000
  O   O3        1.0  0.5077338296660283  0.7731532479304271  0.3680005723494262  1.0000
  O   O4        1.0  0.05705956697525494  0.16824122777159922  0.8903360137081897  1.0000
  O   O5        1.0  0.8827407818279873  0.31181626913713956  0.297050424820938  1.0000
  O   O6        1.0  0.04569969254123407  0.37090767580180284  0.4606326268359773  1.0000
  O   O7        1.0  0.07679233550396702  0.4739448998366207  0.9948728501260575  1.0000
  O   O8        1.0  0.24719735678322863  0.10500216935978335  0.028810140287898633  1.0000
