data_image0
_chemical_formula_structural       Zr4O8
_chemical_formula_sum              "Zr4 O8"
_cell_length_a       5.1539878367877705
_cell_length_b       5.22810872
_cell_length_c       5.329696159145639
_cell_angle_alpha    90.0
_cell_angle_beta     99.43692258379697
_cell_angle_gamma    90.0

_space_group_name_H-M_alt    "P 1"
_space_group_IT_number       1

loop_
  _space_group_symop_operation_xyz
  'x, y, z'

loop_
  _atom_site_type_symbol
  _atom_site_label
  _atom_site_symmetry_multiplicity
  _atom_site_fract_x
  _atom_site_fract_y
  _atom_site_fract_z
  _atom_site_occupancy
  Zr  Zr1       1.0  0.23169317474620676  0.38708690009780966  0.9877447739898422  1.0000
  Zr  Zr2       1.0  0.8124834933888767  0.8175702279139934  0.18310546712695697  1.0000
  Zr  Zr3       1.0  0.8235398626754811  0.06232681723806621  0.6536088745895867  1.0000
  Zr  Zr4       1.0  0.6127833984197073  0.17778118376696916  0.8181558514944207  1.0000
  O   O1        1.0  0.7516557942680109  0.23981023981181693  0.8680495595190356  1.0000
  O   O2        1.0  0.5765872686888898  0.7171138788297071  0.2402528361315852  1.0000
  O   O3        1.0  0.010870018058206199  0.5798437235408755  0.8724663579704455  1.0000
  O   O4        1.0  0.9465266337759926  0.3958970595420723  0.3146655401457288  1.0000
  O   O5        1.0  0.43231269545339934  0.6935959860710454  0.3464574994793921  1.0000
  O   O6        1.0  0.9051277875204136  0.8426722016036479  0.4062370831161344  1.0000
  O   O7        1.0  0.5998157840808176  0.8455048259484688  0.4358308045258674  1.0000
  O   O8        1.0  0.8060769542543476  0.44496131998177546  0.6864433630787303  1.0000
