data_image0
_chemical_formula_structural       Zr4O8
_chemical_formula_sum              "Zr4 O8"
_cell_length_a       5.1539878367877705
_cell_length_b       5.22810872
_cell_length_c       5.329696159145639
_cell_angle_alpha    90.0
_cell_angle_beta     99.43692258379697
_cell_angle_gamma    90.0

_space_group_name_H-M_alt    "P 1"
_space_group_IT_number       1

loop_
  _space_group_symop_operation_xyz
  'x, y, z'

loop_
  _atom_site_type_symbol
  _atom_site_label
  _atom_site_symmetry_multiplicity
  _atom_site_fract_x
  _atom_site_fract_y
  _atom_site_fract_z
  _atom_site_occupancy
  Zr  Zr1       1.0  0.5220180897275526  0.9739001617855259  0.7304923855205168  1.0000
  Zr  Zr2       1.0  0.8063442395162372  0.02160866556577634  0.9143611498682831  1.0000
  Zr  Zr3       1.0  0.9833581833579625  0.2502084445031425  0.5270164606540426  1.0000
  Zr  Zr4       1.0  0.7283571623381668  0.5421079005115601  0.5368608386588516  1.0000
  O   O1        1.0  0.8439745598905191  0.5746264679977706  0.8615395350490722  1.0000
  O   O2        1.0  0.581513897690769  0.31108817018455426  0.29353480759844786  1.0000
  O   O3        1.0  0.976492767510198  0.9828692139169704  0.7842002830900441  1.0000
  O   O4        1.0  0.4702647318344262  0.05868057390657966  0.771239129308757  1.0000
  O   O5        1.0  0.8804916871707693  0.979883747000784  0.6680661759509228  1.0000
  O   O6        1.0  0.3624763963915534  0.4083339217960571  0.3411986939857119  1.0000
  O   O7        1.0  0.44447022248999346  0.5952596886147337  0.051031697377100116  1.0000
  O   O8        1.0  0.913332062939034  0.4092873641537942  0.3090915163472303  1.0000
