data_image0
_chemical_formula_structural       Zr4O8
_chemical_formula_sum              "Zr4 O8"
_cell_length_a       5.1539878367877705
_cell_length_b       5.22810872
_cell_length_c       5.329696159145639
_cell_angle_alpha    90.0
_cell_angle_beta     99.43692258379697
_cell_angle_gamma    90.0

_space_group_name_H-M_alt    "P 1"
_space_group_IT_number       1

loop_
  _space_group_symop_operation_xyz
  'x, y, z'

loop_
  _atom_site_type_symbol
  _atom_site_label
  _atom_site_symmetry_multiplicity
  _atom_site_fract_x
  _atom_site_fract_y
  _atom_site_fract_z
  _atom_site_occupancy
  Zr  Zr1       1.0  0.9996132418671952  0.5112513207501372  0.48629545082633996  1.0000
  Zr  Zr2       1.0  0.9594915147110079  0.9722637377047167  0.8029813964299257  1.0000
  Zr  Zr3       1.0  0.6384282116824211  0.6821806128520258  0.34551985741005176  1.0000
  Zr  Zr4       1.0  0.6049483126208415  0.8980172499970323  0.17957519840009084  1.0000
  O   O1        1.0  0.02046396761725333  0.6980524047509107  0.8257597383619117  1.0000
  O   O2        1.0  0.24244009563265223  0.9290406274674012  0.6317723824347397  1.0000
  O   O3        1.0  0.30990732183517977  0.24457098447327041  0.546849640174468  1.0000
  O   O4        1.0  0.9602385326097187  0.24743692900593306  0.42263012890489904  1.0000
  O   O5        1.0  0.4828850748951048  0.5764197546843732  0.734454118942347  1.0000
  O   O6        1.0  0.9507266690805309  0.747581955577111  0.20876184438404266  1.0000
  O   O7        1.0  0.8891991800899142  0.9843416763985964  0.5787849909092593  1.0000
  O   O8        1.0  0.3867839004460798  0.4952771170543002  0.85366257533191  1.0000
