data_image0
_chemical_formula_structural       Zr4O8
_chemical_formula_sum              "Zr4 O8"
_cell_length_a       5.1539878367877705
_cell_length_b       5.22810872
_cell_length_c       5.329696159145639
_cell_angle_alpha    90.0
_cell_angle_beta     99.43692258379697
_cell_angle_gamma    90.0

_space_group_name_H-M_alt    "P 1"
_space_group_IT_number       1

loop_
  _space_group_symop_operation_xyz
  'x, y, z'

loop_
  _atom_site_type_symbol
  _atom_site_label
  _atom_site_symmetry_multiplicity
  _atom_site_fract_x
  _atom_site_fract_y
  _atom_site_fract_z
  _atom_site_occupancy
  Zr  Zr1       1.0  0.6190493545641509  0.7337713505664905  0.7468380635496912  1.0000
  Zr  Zr2       1.0  0.410078541496528  0.33968677320062923  0.8227905723818694  1.0000
  Zr  Zr3       1.0  0.7633742547769202  0.1972236831109626  0.21080973154426985  1.0000
  Zr  Zr4       1.0  0.09912746859318622  0.3558107422514585  0.018469228189555084  1.0000
  O   O1        1.0  0.7482801519293574  0.9830428632976513  0.48738566299670083  1.0000
  O   O2        1.0  0.04269761449890286  0.060062424611298404  0.30512261906409677  1.0000
  O   O3        1.0  0.9442733171080957  0.1930175491844648  0.7856472844504889  1.0000
  O   O4        1.0  0.9051788790918351  0.7984279667606827  0.4773683340950612  1.0000
  O   O5        1.0  0.963244431899601  0.6869634266721221  0.17322380947622662  1.0000
  O   O6        1.0  0.11971921272274955  0.45292572529389474  0.5323802914734941  1.0000
  O   O7        1.0  0.6569045154072892  0.1059341175274966  0.2840771995291078  1.0000
  O   O8        1.0  0.2588797071484841  0.8490611732940323  0.25929739236532967  1.0000
