data_image0
_chemical_formula_structural       Zr4O8
_chemical_formula_sum              "Zr4 O8"
_cell_length_a       5.1539878367877705
_cell_length_b       5.22810872
_cell_length_c       5.329696159145639
_cell_angle_alpha    90.0
_cell_angle_beta     99.43692258379697
_cell_angle_gamma    90.0

_space_group_name_H-M_alt    "P 1"
_space_group_IT_number       1

loop_
  _space_group_symop_operation_xyz
  'x, y, z'

loop_
  _atom_site_type_symbol
  _atom_site_label
  _atom_site_symmetry_multiplicity
  _atom_site_fract_x
  _atom_site_fract_y
  _atom_site_fract_z
  _atom_site_occupancy
  Zr  Zr1       1.0  0.8808161645760841  0.9293121527680803  0.20476859615951604  1.0000
  Zr  Zr2       1.0  0.30800024260121006  0.09000784457389699  0.24467656600703735  1.0000
  Zr  Zr3       1.0  0.5325381865451835  0.6156211189082563  0.9835660929594923  1.0000
  Zr  Zr4       1.0  0.9170366458621217  0.807931010777323  0.6597286356888024  1.0000
  O   O1        1.0  0.9349199385562343  0.42868811577260857  0.5780183015145042  1.0000
  O   O2        1.0  0.8019969355600267  0.5204462156940508  0.9573312612102844  1.0000
  O   O3        1.0  0.8405038750081992  0.40819140652541464  0.19422476589109472  1.0000
  O   O4        1.0  0.9883325994298531  0.6361922119971943  0.04774471685463588  1.0000
  O   O5        1.0  0.6550963058727177  0.8332688875951  0.4362297400280042  1.0000
  O   O6        1.0  0.9621400923730761  0.5139883133888503  0.9670437446357312  1.0000
  O   O7        1.0  0.2019238070370335  0.6718670443785406  0.8108112115772741  1.0000
  O   O8        1.0  0.07580138974278361  0.5936168381347393  0.8633871090409233  1.0000
