data_image0
_chemical_formula_structural       Zr4O8
_chemical_formula_sum              "Zr4 O8"
_cell_length_a       5.1539878367877705
_cell_length_b       5.22810872
_cell_length_c       5.329696159145639
_cell_angle_alpha    90.0
_cell_angle_beta     99.43692258379697
_cell_angle_gamma    90.0

_space_group_name_H-M_alt    "P 1"
_space_group_IT_number       1

loop_
  _space_group_symop_operation_xyz
  'x, y, z'

loop_
  _atom_site_type_symbol
  _atom_site_label
  _atom_site_symmetry_multiplicity
  _atom_site_fract_x
  _atom_site_fract_y
  _atom_site_fract_z
  _atom_site_occupancy
  Zr  Zr1       1.0  0.8242194964158411  0.6381913570788456  0.957750554927431  1.0000
  Zr  Zr2       1.0  0.780846830409283  0.27280354910187654  0.1538213762444336  1.0000
  Zr  Zr3       1.0  0.10067054853758428  0.06867635994121835  0.25083814399224913  1.0000
  Zr  Zr4       1.0  0.40658240210767366  0.4809067798429316  0.8426909532572413  1.0000
  O   O1        1.0  0.7385243038156659  0.9176225531464226  0.06841439016075768  1.0000
  O   O2        1.0  0.5060364173896081  0.7132617969470232  0.10854264538335201  1.0000
  O   O3        1.0  0.27018873692722156  0.047881770576655214  0.44566499175976837  1.0000
  O   O4        1.0  0.5526008036235481  0.40208671169586196  0.21568486125048203  1.0000
  O   O5        1.0  0.09042427356935434  0.4810619270109253  0.14359422083400375  1.0000
  O   O6        1.0  0.32268557427507716  0.9417585478495738  0.8023096668776901  1.0000
  O   O7        1.0  0.8387028324967645  0.9732694586242268  0.2083812082257026  1.0000
  O   O8        1.0  0.9440698320006606  0.2642964301808419  0.13584159970882403  1.0000
