data_image0
_chemical_formula_structural       Zr4O8
_chemical_formula_sum              "Zr4 O8"
_cell_length_a       5.1539878367877705
_cell_length_b       5.22810872
_cell_length_c       5.329696159145639
_cell_angle_alpha    90.0
_cell_angle_beta     99.43692258379697
_cell_angle_gamma    90.0

_space_group_name_H-M_alt    "P 1"
_space_group_IT_number       1

loop_
  _space_group_symop_operation_xyz
  'x, y, z'

loop_
  _atom_site_type_symbol
  _atom_site_label
  _atom_site_symmetry_multiplicity
  _atom_site_fract_x
  _atom_site_fract_y
  _atom_site_fract_z
  _atom_site_occupancy
  Zr  Zr1       1.0  0.1073119105069491  0.9966120169207837  0.5365557391233473  1.0000
  Zr  Zr2       1.0  0.4803928853417361  0.17464879966533609  0.6952047748535986  1.0000
  Zr  Zr3       1.0  0.5195035058225668  0.34693833608497116  0.12403888476742075  1.0000
  Zr  Zr4       1.0  0.9833991302339977  0.7737273337780337  0.23321961268586655  1.0000
  O   O1        1.0  0.3844499937033987  0.6423146992652775  0.75234517403785  1.0000
  O   O2        1.0  0.917639153986535  0.41270100395689724  0.3501010370221529  1.0000
  O   O3        1.0  0.591522030153584  0.07818215837994558  0.8811878887102615  1.0000
  O   O4        1.0  0.7885000709761649  0.26049734285726345  0.7290109581852864  1.0000
  O   O5        1.0  0.8816188234554776  0.7809285125630367  0.8944292346898095  1.0000
  O   O6        1.0  0.43266374972669297  0.5705480954707838  0.6536051575103587  1.0000
  O   O7        1.0  0.6716306568143509  0.9494935460706735  0.057291023474746794  1.0000
  O   O8        1.0  0.7508008988739654  0.09347136271541245  0.83449743938003  1.0000
