data_image0
_chemical_formula_structural       Zr4O8
_chemical_formula_sum              "Zr4 O8"
_cell_length_a       5.1539878367877705
_cell_length_b       5.22810872
_cell_length_c       5.329696159145639
_cell_angle_alpha    90.0
_cell_angle_beta     99.43692258379697
_cell_angle_gamma    90.0

_space_group_name_H-M_alt    "P 1"
_space_group_IT_number       1

loop_
  _space_group_symop_operation_xyz
  'x, y, z'

loop_
  _atom_site_type_symbol
  _atom_site_label
  _atom_site_symmetry_multiplicity
  _atom_site_fract_x
  _atom_site_fract_y
  _atom_site_fract_z
  _atom_site_occupancy
  Zr  Zr1       1.0  0.4283529221195099  0.9953278298810737  0.2924681147926016  1.0000
  Zr  Zr2       1.0  0.8430197846414362  0.6316454559324427  0.11479959749053492  1.0000
  Zr  Zr3       1.0  0.6831180743855576  0.0917699842686659  0.6595728074815047  1.0000
  Zr  Zr4       1.0  0.1847945894088583  0.22781236275885952  0.5294735267977659  1.0000
  O   O1        1.0  0.36482015190586026  0.15289283940517606  0.1470844649431129  1.0000
  O   O2        1.0  0.6363323789236759  0.539449310917  0.04504524984784908  1.0000
  O   O3        1.0  0.8295440598926269  0.441716404332289  0.8754635880498132  1.0000
  O   O4        1.0  0.9985608445733121  0.7707420614115672  0.5716030419050959  1.0000
  O   O5        1.0  0.9321329812179746  0.40395530791526824  0.6781447151972415  1.0000
  O   O6        1.0  0.9573985147706843  0.9668055689162429  0.9936929526605827  1.0000
  O   O7        1.0  0.39559158563072305  0.5952540598560425  0.7872836440763678  1.0000
  O   O8        1.0  0.9310138585252012  0.8455858850328255  0.13139487563123708  1.0000
