data_image0
_chemical_formula_structural       Zr4O8
_chemical_formula_sum              "Zr4 O8"
_cell_length_a       5.1539878367877705
_cell_length_b       5.22810872
_cell_length_c       5.329696159145639
_cell_angle_alpha    90.0
_cell_angle_beta     99.43692258379697
_cell_angle_gamma    90.0

_space_group_name_H-M_alt    "P 1"
_space_group_IT_number       1

loop_
  _space_group_symop_operation_xyz
  'x, y, z'

loop_
  _atom_site_type_symbol
  _atom_site_label
  _atom_site_symmetry_multiplicity
  _atom_site_fract_x
  _atom_site_fract_y
  _atom_site_fract_z
  _atom_site_occupancy
  Zr  Zr1       1.0  0.919644040439688  0.9818787123590624  0.9561221481084949  1.0000
  Zr  Zr2       1.0  0.6632903515466353  0.9757488632214404  0.3789493402717019  1.0000
  Zr  Zr3       1.0  0.645429894007103  0.9067174166208929  0.8656114739008416  1.0000
  Zr  Zr4       1.0  0.5791722582948235  0.6384837238191476  0.7050862060075431  1.0000
  O   O1        1.0  0.7583032202692053  0.6955561633253211  0.546580294269857  1.0000
  O   O2        1.0  0.36485927821829023  0.7346120431960017  0.41415922104808445  1.0000
  O   O3        1.0  0.7334602244597157  0.5259097022216963  0.36637636121566963  1.0000
  O   O4        1.0  0.3580856449304761  0.45079804043065597  0.33258114689900964  1.0000
  O   O5        1.0  0.29788874650218133  0.5963341871174777  0.8437477904474919  1.0000
  O   O6        1.0  0.369599685770428  0.8312676185538024  0.6793036306826519  1.0000
  O   O7        1.0  0.7154317405946067  0.24790464413592872  0.42507491571065614  1.0000
  O   O8        1.0  0.7335560794814384  0.5982825372166758  0.07101649558052969  1.0000
