data_image0
_chemical_formula_structural       Zr4O8
_chemical_formula_sum              "Zr4 O8"
_cell_length_a       5.1539878367877705
_cell_length_b       5.22810872
_cell_length_c       5.329696159145639
_cell_angle_alpha    90.0
_cell_angle_beta     99.43692258379697
_cell_angle_gamma    90.0

_space_group_name_H-M_alt    "P 1"
_space_group_IT_number       1

loop_
  _space_group_symop_operation_xyz
  'x, y, z'

loop_
  _atom_site_type_symbol
  _atom_site_label
  _atom_site_symmetry_multiplicity
  _atom_site_fract_x
  _atom_site_fract_y
  _atom_site_fract_z
  _atom_site_occupancy
  Zr  Zr1       1.0  0.2186441793489884  0.8756268183348066  0.9949784679166465  1.0000
  Zr  Zr2       1.0  0.6451158265720522  0.977756104302248  0.1197608338468843  1.0000
  Zr  Zr3       1.0  0.8871213810704646  0.16805438829089425  0.6713310354784079  1.0000
  Zr  Zr4       1.0  0.6531988713862669  0.20561717489654896  0.17275288414243928  1.0000
  O   O1        1.0  0.9734055918804749  0.8471349002660915  0.09282274532636237  1.0000
  O   O2        1.0  0.659995725906672  0.9169260645676962  0.8695574435395343  1.0000
  O   O3        1.0  0.20597662778420833  0.8415381985197774  0.9010103271134096  1.0000
  O   O4        1.0  0.11904196453556537  0.3000768100197675  0.14230127348211496  1.0000
  O   O5        1.0  0.10930487074764184  0.2407900308862594  0.7947406712257248  1.0000
  O   O6        1.0  0.463400177858297  0.8011091907853967  0.31131080420857415  1.0000
  O   O7        1.0  0.032294454597560085  0.28728444585353863  0.18250546470700613  1.0000
  O   O8        1.0  0.3845695767839672  0.56529902467733  0.49468866893453267  1.0000
