data_image0
_chemical_formula_structural       Zr4O8
_chemical_formula_sum              "Zr4 O8"
_cell_length_a       5.1539878367877705
_cell_length_b       5.22810872
_cell_length_c       5.329696159145639
_cell_angle_alpha    90.0
_cell_angle_beta     99.43692258379697
_cell_angle_gamma    90.0

_space_group_name_H-M_alt    "P 1"
_space_group_IT_number       1

loop_
  _space_group_symop_operation_xyz
  'x, y, z'

loop_
  _atom_site_type_symbol
  _atom_site_label
  _atom_site_symmetry_multiplicity
  _atom_site_fract_x
  _atom_site_fract_y
  _atom_site_fract_z
  _atom_site_occupancy
  Zr  Zr1       1.0  0.42403860388907866  0.5113609567920765  0.638870031511896  1.0000
  Zr  Zr2       1.0  0.6132107721082996  0.2787364453186072  0.4792132623376393  1.0000
  Zr  Zr3       1.0  0.2941911951287963  0.5123855311581664  0.39619152439721006  1.0000
  Zr  Zr4       1.0  0.8111901330748372  0.7351594527398877  0.7318283202746798  1.0000
  O   O1        1.0  0.7275143551658871  0.2611699287067957  0.37706519165404373  1.0000
  O   O2        1.0  0.6485736425767712  0.7282958251132641  0.3375141866383764  1.0000
  O   O3        1.0  0.792389711537659  0.8839797499411901  0.06558131883513596  1.0000
  O   O4        1.0  0.19823492699687506  0.8972911735436448  0.9457745086045541  1.0000
  O   O5        1.0  0.9378627496097725  0.3568978126478157  0.7762601300982297  1.0000
  O   O6        1.0  0.15184006646972037  0.9721898780749427  0.31936851349833084  1.0000
  O   O7        1.0  0.6878473570143413  0.655713334623572  0.6498481206297271  1.0000
  O   O8        1.0  0.8636474192394825  0.19651092929725067  0.6014977643721764  1.0000
