data_image0
_chemical_formula_structural       Zr4O8
_chemical_formula_sum              "Zr4 O8"
_cell_length_a       5.1539878367877705
_cell_length_b       5.22810872
_cell_length_c       5.329696159145639
_cell_angle_alpha    90.0
_cell_angle_beta     99.43692258379697
_cell_angle_gamma    90.0

_space_group_name_H-M_alt    "P 1"
_space_group_IT_number       1

loop_
  _space_group_symop_operation_xyz
  'x, y, z'

loop_
  _atom_site_type_symbol
  _atom_site_label
  _atom_site_symmetry_multiplicity
  _atom_site_fract_x
  _atom_site_fract_y
  _atom_site_fract_z
  _atom_site_occupancy
  Zr  Zr1       1.0  0.08815750131740696  0.21475878361645862  0.18145100559545568  1.0000
  Zr  Zr2       1.0  0.3354035823049344  0.3730412862627279  0.2132649942309799  1.0000
  Zr  Zr3       1.0  0.293280167890428  0.23330668302767954  0.7507478585912146  1.0000
  Zr  Zr4       1.0  0.644102876636504  0.4076282684430641  0.3542472215269079  1.0000
  O   O1        1.0  0.15611514232079315  0.9926194931331658  0.8684873969389333  1.0000
  O   O2        1.0  0.5241169455757131  0.5554979474243424  0.9027814830779022  1.0000
  O   O3        1.0  0.038798519002405385  0.24871678487883742  0.9608559043922718  1.0000
  O   O4        1.0  0.3289266389508918  0.6715878342094541  0.9589707778455825  1.0000
  O   O5        1.0  0.7465311396219292  0.06348946533726973  0.2882180152410321  1.0000
  O   O6        1.0  0.16100283564559348  0.5634356865358185  0.2479662348506615  1.0000
  O   O7        1.0  0.8147830552582853  0.8318914603481105  0.9078860372269926  1.0000
  O   O8        1.0  0.22917792012177784  0.4524192472330597  0.43323337044610355  1.0000
