data_image0
_chemical_formula_structural       Zr4O8
_chemical_formula_sum              "Zr4 O8"
_cell_length_a       5.1539878367877705
_cell_length_b       5.22810872
_cell_length_c       5.329696159145639
_cell_angle_alpha    90.0
_cell_angle_beta     99.43692258379697
_cell_angle_gamma    90.0

_space_group_name_H-M_alt    "P 1"
_space_group_IT_number       1

loop_
  _space_group_symop_operation_xyz
  'x, y, z'

loop_
  _atom_site_type_symbol
  _atom_site_label
  _atom_site_symmetry_multiplicity
  _atom_site_fract_x
  _atom_site_fract_y
  _atom_site_fract_z
  _atom_site_occupancy
  Zr  Zr1       1.0  0.7489930160978417  0.06014103421795802  0.3549600006002613  1.0000
  Zr  Zr2       1.0  0.4597185858912045  0.09260897176857696  0.33706485661766905  1.0000
  Zr  Zr3       1.0  0.7432673122735949  0.3912003250586218  0.46653411624684615  1.0000
  Zr  Zr4       1.0  0.9545115556854789  0.9695873906856316  0.6350640329749382  1.0000
  O   O1        1.0  0.08628413615354269  0.46918112991309613  0.2114183847855342  1.0000
  O   O2        1.0  0.6990248741688987  0.6709544661572977  0.9358662136451649  1.0000
  O   O3        1.0  0.38580662015210976  0.5188968439817288  0.894919414025555  1.0000
  O   O4        1.0  0.6325186732684012  0.10669432671519985  0.23604289561789393  1.0000
  O   O5        1.0  0.797630521338089  0.30831006650598347  0.510547870025789  1.0000
  O   O6        1.0  0.9695726321521718  0.5636094528773814  0.4531303458688427  1.0000
  O   O7        1.0  0.17984962225978052  0.3784619936677256  0.4909431318962554  1.0000
  O   O8        1.0  0.2128349374009053  0.2769541671189302  0.32447408998591154  1.0000
