data_image0
_chemical_formula_structural       Zr4O8
_chemical_formula_sum              "Zr4 O8"
_cell_length_a       5.1539878367877705
_cell_length_b       5.22810872
_cell_length_c       5.329696159145639
_cell_angle_alpha    90.0
_cell_angle_beta     99.43692258379697
_cell_angle_gamma    90.0

_space_group_name_H-M_alt    "P 1"
_space_group_IT_number       1

loop_
  _space_group_symop_operation_xyz
  'x, y, z'

loop_
  _atom_site_type_symbol
  _atom_site_label
  _atom_site_symmetry_multiplicity
  _atom_site_fract_x
  _atom_site_fract_y
  _atom_site_fract_z
  _atom_site_occupancy
  Zr  Zr1       1.0  0.2952476800421131  0.6273088745938473  0.40679458514132705  1.0000
  Zr  Zr2       1.0  0.2833374698942954  0.5427973942637676  0.030470836303754467  1.0000
  Zr  Zr3       1.0  0.4506431919319649  0.4954268480200099  0.1957241136579384  1.0000
  Zr  Zr4       1.0  0.963012091645902  0.6977929006173316  0.6517715280440619  1.0000
  O   O1        1.0  0.2816823241194335  0.36438477507891776  0.28149442067374153  1.0000
  O   O2        1.0  0.5155284690674051  0.3260358142838271  0.49428270135692287  1.0000
  O   O3        1.0  0.26302192576327954  0.9964934440980144  0.08307811923651442  1.0000
  O   O4        1.0  0.7617184323178314  0.09958024764581097  0.23126086389672196  1.0000
  O   O5        1.0  0.327112687649322  0.8434435126370587  0.39575497066614673  1.0000
  O   O6        1.0  0.9201983184793079  0.6494620665570068  0.5864531121746142  1.0000
  O   O7        1.0  0.9906182960463124  0.3467694979492699  0.5963116156603405  1.0000
  O   O8        1.0  0.32059039501756637  0.8614516893144164  0.03372965412750162  1.0000
