data_image0
_chemical_formula_structural       Zr4O8
_chemical_formula_sum              "Zr4 O8"
_cell_length_a       5.1539878367877705
_cell_length_b       5.22810872
_cell_length_c       5.329696159145639
_cell_angle_alpha    90.0
_cell_angle_beta     99.43692258379697
_cell_angle_gamma    90.0

_space_group_name_H-M_alt    "P 1"
_space_group_IT_number       1

loop_
  _space_group_symop_operation_xyz
  'x, y, z'

loop_
  _atom_site_type_symbol
  _atom_site_label
  _atom_site_symmetry_multiplicity
  _atom_site_fract_x
  _atom_site_fract_y
  _atom_site_fract_z
  _atom_site_occupancy
  Zr  Zr1       1.0  0.23097832091822568  0.6782505133816219  0.3922470847554971  1.0000
  Zr  Zr2       1.0  0.5841342308774848  0.7045435599239287  0.297950435617349  1.0000
  Zr  Zr3       1.0  0.6248970043305095  0.10153120789218839  0.15236731091549238  1.0000
  Zr  Zr4       1.0  0.7761925713832034  0.04742178680187248  0.8279527533125157  1.0000
  O   O1        1.0  0.4320947680860101  0.1274028840461412  0.5086091378320905  1.0000
  O   O2        1.0  0.663730300960679  0.9120574384173068  0.5429908187288035  1.0000
  O   O3        1.0  0.31020219073471367  0.38686889989795503  0.797981000624497  1.0000
  O   O4        1.0  0.7763333306903597  0.46987744247851104  0.7031334007968582  1.0000
  O   O5        1.0  0.8408988961654842  0.7344758002443186  0.7847573763842566  1.0000
  O   O6        1.0  0.12753687514724366  0.49427038143100877  0.0070999329373604425  1.0000
  O   O7        1.0  0.48594325508809  0.1781124386414703  0.44820576521214406  1.0000
  O   O8        1.0  0.5240366397408139  0.5185853690960016  0.754515131004069  1.0000
