data_image0
_chemical_formula_structural       Zr4O8
_chemical_formula_sum              "Zr4 O8"
_cell_length_a       5.1539878367877705
_cell_length_b       5.22810872
_cell_length_c       5.329696159145639
_cell_angle_alpha    90.0
_cell_angle_beta     99.43692258379697
_cell_angle_gamma    90.0

_space_group_name_H-M_alt    "P 1"
_space_group_IT_number       1

loop_
  _space_group_symop_operation_xyz
  'x, y, z'

loop_
  _atom_site_type_symbol
  _atom_site_label
  _atom_site_symmetry_multiplicity
  _atom_site_fract_x
  _atom_site_fract_y
  _atom_site_fract_z
  _atom_site_occupancy
  Zr  Zr1       1.0  0.13891734538361789  0.20278550914974858  0.3973354953158008  1.0000
  Zr  Zr2       1.0  0.40074325562805946  0.9619431488332228  0.2506340941516987  1.0000
  Zr  Zr3       1.0  0.7401307685374459  0.2939192959255834  0.7317613214814997  1.0000
  Zr  Zr4       1.0  0.47277677058150114  0.0462003807535023  0.8788526661909231  1.0000
  O   O1        1.0  0.5074373648279433  0.8649442577783084  0.051212076258575934  1.0000
  O   O2        1.0  0.012831082980753195  0.6061276649200096  0.635786072374021  1.0000
  O   O3        1.0  0.33092055761256134  0.09531965937751607  0.2688602128518056  1.0000
  O   O4        1.0  0.7255784804260976  0.8439416469775765  0.5362017392109308  1.0000
  O   O5        1.0  0.6067770323448514  0.5774277014731553  0.6218841075618826  1.0000
  O   O6        1.0  0.6202546749300382  0.980671591441947  0.7790626654139721  1.0000
  O   O7        1.0  0.9976293341176117  0.26894861533484704  0.05585253766815157  1.0000
  O   O8        1.0  0.6024827385014699  0.35352205124933445  0.9643034094827527  1.0000
