data_image0
_chemical_formula_structural       Zr4O8
_chemical_formula_sum              "Zr4 O8"
_cell_length_a       5.1539878367877705
_cell_length_b       5.22810872
_cell_length_c       5.329696159145639
_cell_angle_alpha    90.0
_cell_angle_beta     99.43692258379697
_cell_angle_gamma    90.0

_space_group_name_H-M_alt    "P 1"
_space_group_IT_number       1

loop_
  _space_group_symop_operation_xyz
  'x, y, z'

loop_
  _atom_site_type_symbol
  _atom_site_label
  _atom_site_symmetry_multiplicity
  _atom_site_fract_x
  _atom_site_fract_y
  _atom_site_fract_z
  _atom_site_occupancy
  Zr  Zr1       1.0  0.4321401770752331  0.21349188852958711  0.5510710126694711  1.0000
  Zr  Zr2       1.0  0.019560890224388672  0.831539583460479  0.9379076140503848  1.0000
  Zr  Zr3       1.0  0.32398980712355635  0.45687065380850456  0.16686481686448218  1.0000
  Zr  Zr4       1.0  0.04921523421539886  0.3832902077458691  0.29628021777917546  1.0000
  O   O1        1.0  0.7261920854105526  0.7524495381459317  0.3175220266884562  1.0000
  O   O2        1.0  0.8762075597825856  0.9503038541807172  0.11618299936193921  1.0000
  O   O3        1.0  0.39282470782196555  0.44299286777736313  0.13038035633980272  1.0000
  O   O4        1.0  0.3262659343352734  0.5151241058750742  0.9984744683595608  1.0000
  O   O5        1.0  0.004494113055914184  0.6677569917035484  0.9282867047546404  1.0000
  O   O6        1.0  0.9507688556103133  0.24059393988939348  0.06729763918292564  1.0000
  O   O7        1.0  0.5492352739740873  0.4489560594699853  0.8296355531455752  1.0000
  O   O8        1.0  0.796709297248671  0.7026004226849434  0.0966149366032969  1.0000
