data_image0
_chemical_formula_structural       Zr4O8
_chemical_formula_sum              "Zr4 O8"
_cell_length_a       5.1539878367877705
_cell_length_b       5.22810872
_cell_length_c       5.329696159145639
_cell_angle_alpha    90.0
_cell_angle_beta     99.43692258379697
_cell_angle_gamma    90.0

_space_group_name_H-M_alt    "P 1"
_space_group_IT_number       1

loop_
  _space_group_symop_operation_xyz
  'x, y, z'

loop_
  _atom_site_type_symbol
  _atom_site_label
  _atom_site_symmetry_multiplicity
  _atom_site_fract_x
  _atom_site_fract_y
  _atom_site_fract_z
  _atom_site_occupancy
  Zr  Zr1       1.0  0.927146260138457  0.042202276668874106  0.15067909125191292  1.0000
  Zr  Zr2       1.0  0.23291291328374797  0.48642052722680695  0.4993084441887805  1.0000
  Zr  Zr3       1.0  0.39277819258070035  0.3171205583433183  0.9361271403300186  1.0000
  Zr  Zr4       1.0  0.8636169514091279  0.7620757786802841  0.6498607844908584  1.0000
  O   O1        1.0  0.21852245382369517  0.1661906620570548  0.36943731338581287  1.0000
  O   O2        1.0  0.9427917344047927  0.0146825270118498  0.3786746596189303  1.0000
  O   O3        1.0  0.16973434687166034  0.9737334395514381  0.9842809396245524  1.0000
  O   O4        1.0  0.9212976309369934  0.5179679013849243  0.352171857753504  1.0000
  O   O5        1.0  0.5796037566176224  0.8181314094687195  0.40489738564583067  1.0000
  O   O6        1.0  0.7968377260455952  0.17377117216579308  0.23241262496402015  1.0000
  O   O7        1.0  0.8116881871932691  0.20677693869177816  0.44679045611430723  1.0000
  O   O8        1.0  0.7917392709752527  0.726283925317226  0.20855038165116468  1.0000
