data_image0
_chemical_formula_structural       Zr4O8
_chemical_formula_sum              "Zr4 O8"
_cell_length_a       5.1539878367877705
_cell_length_b       5.22810872
_cell_length_c       5.329696159145639
_cell_angle_alpha    90.0
_cell_angle_beta     99.43692258379697
_cell_angle_gamma    90.0

_space_group_name_H-M_alt    "P 1"
_space_group_IT_number       1

loop_
  _space_group_symop_operation_xyz
  'x, y, z'

loop_
  _atom_site_type_symbol
  _atom_site_label
  _atom_site_symmetry_multiplicity
  _atom_site_fract_x
  _atom_site_fract_y
  _atom_site_fract_z
  _atom_site_occupancy
  Zr  Zr1       1.0  0.3474158974192374  0.47949060201158744  0.6849914483536869  1.0000
  Zr  Zr2       1.0  0.07177528339441963  0.393846893540875  0.41237997509037605  1.0000
  Zr  Zr3       1.0  0.06915742109204537  0.8780038087538142  0.9054763530817409  1.0000
  Zr  Zr4       1.0  0.38247818091030505  0.6921062288780204  0.7312354571483413  1.0000
  O   O1        1.0  0.6463296802052412  0.8428629625245527  0.16429360249791358  1.0000
  O   O2        1.0  0.021552396746544744  0.8628621258690421  0.854650203206333  1.0000
  O   O3        1.0  0.4913109935970592  0.9488711138007045  0.23397515597643803  1.0000
  O   O4        1.0  0.7120439007015925  0.7087043891846925  0.31782996191117263  1.0000
  O   O5        1.0  0.9133897389053267  0.830321251575171  0.050075261836280305  1.0000
  O   O6        1.0  0.35819048107333273  0.5090798289000968  0.06327915971690068  1.0000
  O   O7        1.0  0.5353094992940779  0.4372063280339953  0.24999682713846028  1.0000
  O   O8        1.0  0.3156176045181631  0.6568752337301191  0.3692990462421144  1.0000
