data_image0
_chemical_formula_structural       Zr4O8
_chemical_formula_sum              "Zr4 O8"
_cell_length_a       5.1539878367877705
_cell_length_b       5.22810872
_cell_length_c       5.329696159145639
_cell_angle_alpha    90.0
_cell_angle_beta     99.43692258379697
_cell_angle_gamma    90.0

_space_group_name_H-M_alt    "P 1"
_space_group_IT_number       1

loop_
  _space_group_symop_operation_xyz
  'x, y, z'

loop_
  _atom_site_type_symbol
  _atom_site_label
  _atom_site_symmetry_multiplicity
  _atom_site_fract_x
  _atom_site_fract_y
  _atom_site_fract_z
  _atom_site_occupancy
  Zr  Zr1       1.0  0.2577925139521309  0.38096983275325513  0.42323537378924714  1.0000
  Zr  Zr2       1.0  0.657583045552748  0.7177826873766371  0.5256546631797168  1.0000
  Zr  Zr3       1.0  0.16958440910879524  0.23026115151052196  0.36157217612664105  1.0000
  Zr  Zr4       1.0  0.7632645925997816  0.8553564516022814  0.3414103329206002  1.0000
  O   O1        1.0  0.6945338535388501  0.1892518788446651  0.10798232402215291  1.0000
  O   O2        1.0  0.46355195712272845  0.6661910948717615  0.008473032664380709  1.0000
  O   O3        1.0  0.8808623068571961  0.9654392997586125  0.8911924953396735  1.0000
  O   O4        1.0  0.06404570150166577  0.7979759813469229  0.10082333934145282  1.0000
  O   O5        1.0  0.8440726275555286  0.7912068439632147  0.6529568032201176  1.0000
  O   O6        1.0  0.08569724021907188  0.9826109069976132  0.28328096324608065  1.0000
  O   O7        1.0  0.3772563760345111  0.8896301054093388  0.2009214357198701  1.0000
  O   O8        1.0  0.41433364257205696  0.9731799610625274  0.7553624080403938  1.0000
