data_image0
_chemical_formula_structural       Zr4O8
_chemical_formula_sum              "Zr4 O8"
_cell_length_a       5.1539878367877705
_cell_length_b       5.22810872
_cell_length_c       5.329696159145639
_cell_angle_alpha    90.0
_cell_angle_beta     99.43692258379697
_cell_angle_gamma    90.0

_space_group_name_H-M_alt    "P 1"
_space_group_IT_number       1

loop_
  _space_group_symop_operation_xyz
  'x, y, z'

loop_
  _atom_site_type_symbol
  _atom_site_label
  _atom_site_symmetry_multiplicity
  _atom_site_fract_x
  _atom_site_fract_y
  _atom_site_fract_z
  _atom_site_occupancy
  Zr  Zr1       1.0  0.2865300187538953  0.16838374635928322  0.893751244818068  1.0000
  Zr  Zr2       1.0  0.28134840400865535  0.8477325994142575  0.768384966056213  1.0000
  Zr  Zr3       1.0  0.9814851344568147  0.07775374230432852  0.35399327011430826  1.0000
  Zr  Zr4       1.0  0.5402166931580155  0.977163050019783  0.2014694268713786  1.0000
  O   O1        1.0  0.0036385164134440373  0.7247847936002505  0.15363948855597442  1.0000
  O   O2        1.0  0.24053465703020827  0.14492900416330431  0.021667019142194377  1.0000
  O   O3        1.0  0.055429237185169455  0.20176623763617585  0.7875673102680025  1.0000
  O   O4        1.0  0.15370136629476472  0.010983618175089305  0.11367735298593473  1.0000
  O   O5        1.0  0.22038514620272842  0.7931352010645876  0.8309660170992128  1.0000
  O   O6        1.0  0.6921422405235482  0.09895639324579975  0.17067914207367885  1.0000
  O   O7        1.0  0.4931806828039824  0.023727840586665216  0.1588525798247531  1.0000
  O   O8        1.0  0.5890802858535054  0.14545700326455346  0.376831576673252  1.0000
