data_image0
_chemical_formula_structural       Zr4O8
_chemical_formula_sum              "Zr4 O8"
_cell_length_a       5.1539878367877705
_cell_length_b       5.22810872
_cell_length_c       5.329696159145639
_cell_angle_alpha    90.0
_cell_angle_beta     99.43692258379697
_cell_angle_gamma    90.0

_space_group_name_H-M_alt    "P 1"
_space_group_IT_number       1

loop_
  _space_group_symop_operation_xyz
  'x, y, z'

loop_
  _atom_site_type_symbol
  _atom_site_label
  _atom_site_symmetry_multiplicity
  _atom_site_fract_x
  _atom_site_fract_y
  _atom_site_fract_z
  _atom_site_occupancy
  Zr  Zr1       1.0  0.142035661000655  0.4831003746273832  0.6506307549390575  1.0000
  Zr  Zr2       1.0  0.5855921855318407  0.08188938259550582  0.7159268987857321  1.0000
  Zr  Zr3       1.0  0.7317985283942949  0.35531264585398503  0.35498690379679054  1.0000
  Zr  Zr4       1.0  0.18530255133003815  0.9556810973600944  0.6833927126398152  1.0000
  O   O1        1.0  0.6696630881358878  0.4860021914610684  0.6606747581528474  1.0000
  O   O2        1.0  0.5245265947181558  0.05495102452088574  0.6657818209291353  1.0000
  O   O3        1.0  0.8545730210574582  0.5498647757285582  0.37325658090361813  1.0000
  O   O4        1.0  0.935284052390088  0.08982596464598913  0.7349949690096196  1.0000
  O   O5        1.0  0.44082180210090627  0.8927177640251927  0.1270560691748237  1.0000
  O   O6        1.0  0.23929701237854228  0.5070501345336735  0.48329183002510767  1.0000
  O   O7        1.0  0.946965218947577  0.7198964143372635  0.27377337719007855  1.0000
  O   O8        1.0  0.7753933530595131  0.7080926644105805  0.9073294679113664  1.0000
