data_image0
_chemical_formula_structural       Zr4O8
_chemical_formula_sum              "Zr4 O8"
_cell_length_a       5.1539878367877705
_cell_length_b       5.22810872
_cell_length_c       5.329696159145639
_cell_angle_alpha    90.0
_cell_angle_beta     99.43692258379697
_cell_angle_gamma    90.0

_space_group_name_H-M_alt    "P 1"
_space_group_IT_number       1

loop_
  _space_group_symop_operation_xyz
  'x, y, z'

loop_
  _atom_site_type_symbol
  _atom_site_label
  _atom_site_symmetry_multiplicity
  _atom_site_fract_x
  _atom_site_fract_y
  _atom_site_fract_z
  _atom_site_occupancy
  Zr  Zr1       1.0  0.334067052522832  0.8825129282804767  0.7876691976712529  1.0000
  Zr  Zr2       1.0  0.7368192028437779  0.4991747650337892  0.4194613954346309  1.0000
  Zr  Zr3       1.0  0.5721853315395808  0.032310265935619586  0.2269412405943676  1.0000
  Zr  Zr4       1.0  0.01520909363029177  0.9571898021301131  0.4708432849662998  1.0000
  O   O1        1.0  0.8163291761145217  0.3619852701446469  0.004615665779933664  1.0000
  O   O2        1.0  0.7140853638396183  0.8795581514325335  0.6572996777262725  1.0000
  O   O3        1.0  0.4015649167467117  0.09361103746302746  0.7761535728208688  1.0000
  O   O4        1.0  0.24297918535492613  0.4110088459193335  0.9219234938176264  1.0000
  O   O5        1.0  0.2025760985773566  0.6291358550303343  0.7644704017054593  1.0000
  O   O6        1.0  0.9094848935988509  0.4124074345950959  0.8507598269684102  1.0000
  O   O7        1.0  0.15208750676577054  0.45774438876915013  0.18123372916829794  1.0000
  O   O8        1.0  0.9963288974173641  0.8248231328412263  0.11523484810942897  1.0000
