data_image0
_chemical_formula_structural       Zr4O8
_chemical_formula_sum              "Zr4 O8"
_cell_length_a       5.1539878367877705
_cell_length_b       5.22810872
_cell_length_c       5.329696159145639
_cell_angle_alpha    90.0
_cell_angle_beta     99.43692258379697
_cell_angle_gamma    90.0

_space_group_name_H-M_alt    "P 1"
_space_group_IT_number       1

loop_
  _space_group_symop_operation_xyz
  'x, y, z'

loop_
  _atom_site_type_symbol
  _atom_site_label
  _atom_site_symmetry_multiplicity
  _atom_site_fract_x
  _atom_site_fract_y
  _atom_site_fract_z
  _atom_site_occupancy
  Zr  Zr1       1.0  0.747390097679002  0.23168516958105734  0.34219625089926353  1.0000
  Zr  Zr2       1.0  0.6651390099154186  0.20760616073635418  0.8115326391328557  1.0000
  Zr  Zr3       1.0  0.6896139099592697  0.6858008157783928  0.18917427505953732  1.0000
  Zr  Zr4       1.0  0.2676436922101608  0.7240627662330681  0.9861026156864643  1.0000
  O   O1        1.0  0.7363323499586301  0.15580187550749613  0.9990759614098765  1.0000
  O   O2        1.0  0.5008802607407077  0.4874274016184543  0.28675518452250515  1.0000
  O   O3        1.0  0.9757927733232847  0.17537904876689225  0.09878048745501644  1.0000
  O   O4        1.0  0.5290869340306728  0.2633374139780038  0.6360178483584775  1.0000
  O   O5        1.0  0.9059061264677819  0.3986555690632372  0.17283038788720972  1.0000
  O   O6        1.0  0.6396856363223691  0.6814533039736119  0.4860839555750811  1.0000
  O   O7        1.0  0.6687216161658416  0.9250402052267575  0.42177285551495913  1.0000
  O   O8        1.0  0.4797910168298287  0.21936674952702084  0.6644286508586497  1.0000
