data_image0
_chemical_formula_structural       Zr4O8
_chemical_formula_sum              "Zr4 O8"
_cell_length_a       5.1539878367877705
_cell_length_b       5.22810872
_cell_length_c       5.329696159145639
_cell_angle_alpha    90.0
_cell_angle_beta     99.43692258379697
_cell_angle_gamma    90.0

_space_group_name_H-M_alt    "P 1"
_space_group_IT_number       1

loop_
  _space_group_symop_operation_xyz
  'x, y, z'

loop_
  _atom_site_type_symbol
  _atom_site_label
  _atom_site_symmetry_multiplicity
  _atom_site_fract_x
  _atom_site_fract_y
  _atom_site_fract_z
  _atom_site_occupancy
  Zr  Zr1       1.0  0.03277418581631508  0.06001104850428973  0.7167630225492339  1.0000
  Zr  Zr2       1.0  0.5540134504448382  0.4968296245430208  0.9455913082871348  1.0000
  Zr  Zr3       1.0  0.9580169877297806  0.8375195597128808  0.9888034453064947  1.0000
  Zr  Zr4       1.0  0.999902076976931  0.4419234704107424  0.006261349369960811  1.0000
  O   O1        1.0  0.01469331840342214  0.5440247227031634  0.33518482318207  1.0000
  O   O2        1.0  0.4429369695400709  0.4406171317098284  0.007716595199845244  1.0000
  O   O3        1.0  0.12731049790552618  0.1753240857566425  0.47584435119109614  1.0000
  O   O4        1.0  0.26387139631260226  0.852980223576651  0.45142517503052915  1.0000
  O   O5        1.0  0.7977726080706837  0.5690017706796624  0.27358481577842575  1.0000
  O   O6        1.0  0.23218460180164868  0.045236001717142926  0.2659384349750932  1.0000
  O   O7        1.0  0.4222592670895544  0.9579540681529366  0.6558834480935438  1.0000
  O   O8        1.0  0.630251790347863  0.5006873205594427  0.9901719580638124  1.0000
