data_image0
_chemical_formula_structural       Zr4O8
_chemical_formula_sum              "Zr4 O8"
_cell_length_a       5.1539878367877705
_cell_length_b       5.22810872
_cell_length_c       5.329696159145639
_cell_angle_alpha    90.0
_cell_angle_beta     99.43692258379697
_cell_angle_gamma    90.0

_space_group_name_H-M_alt    "P 1"
_space_group_IT_number       1

loop_
  _space_group_symop_operation_xyz
  'x, y, z'

loop_
  _atom_site_type_symbol
  _atom_site_label
  _atom_site_symmetry_multiplicity
  _atom_site_fract_x
  _atom_site_fract_y
  _atom_site_fract_z
  _atom_site_occupancy
  Zr  Zr1       1.0  0.3152253883431744  0.8875245895108659  0.18419178676612802  1.0000
  Zr  Zr2       1.0  0.5760177520191707  0.5547489276037485  0.6360791919738453  1.0000
  Zr  Zr3       1.0  0.216089154598734  0.028550430177385566  0.8052437772076733  1.0000
  Zr  Zr4       1.0  0.12773892016092592  0.23828272954012597  0.43841351874189893  1.0000
  O   O1        1.0  0.7552950653273456  0.43389052548162077  0.9263294698844646  1.0000
  O   O2        1.0  0.9782948439846084  0.6899925010742862  0.2285631829425414  1.0000
  O   O3        1.0  0.7061471089409533  0.7816139052234998  0.050777092221464315  1.0000
  O   O4        1.0  0.19096554230510776  0.32469568521436365  0.20408599798878535  1.0000
  O   O5        1.0  0.13143499478364973  0.2422759730799946  0.8171643176588219  1.0000
  O   O6        1.0  0.37238100193507506  0.5558291906326573  0.09554298406648343  1.0000
  O   O7        1.0  0.9129447397909054  0.30287749781672346  0.04199956476652744  1.0000
  O   O8        1.0  0.9447996632997517  0.695873739914262  0.007747332130890072  1.0000
