data_image0
_chemical_formula_structural       Zr4O8
_chemical_formula_sum              "Zr4 O8"
_cell_length_a       5.1539878367877705
_cell_length_b       5.22810872
_cell_length_c       5.329696159145639
_cell_angle_alpha    90.0
_cell_angle_beta     99.43692258379697
_cell_angle_gamma    90.0

_space_group_name_H-M_alt    "P 1"
_space_group_IT_number       1

loop_
  _space_group_symop_operation_xyz
  'x, y, z'

loop_
  _atom_site_type_symbol
  _atom_site_label
  _atom_site_symmetry_multiplicity
  _atom_site_fract_x
  _atom_site_fract_y
  _atom_site_fract_z
  _atom_site_occupancy
  Zr  Zr1       1.0  0.3838108984508626  0.39199174150518346  0.5526213234799755  1.0000
  Zr  Zr2       1.0  0.04438698044275924  0.11050008255519295  0.4667820118897641  1.0000
  Zr  Zr3       1.0  0.4121739837404155  0.628346628893464  0.6105254711514903  1.0000
  Zr  Zr4       1.0  0.31794727791228006  0.47792484173607264  0.13874641465323556  1.0000
  O   O1        1.0  0.7696867065291784  0.3717871221242426  0.6599409300212571  1.0000
  O   O2        1.0  0.1588855366487607  0.01619083680945721  0.2576780696850527  1.0000
  O   O3        1.0  0.8893584331328022  0.1961926223961683  0.0664796951065405  1.0000
  O   O4        1.0  0.9656660104790324  0.5259554558381634  0.15038448197374876  1.0000
  O   O5        1.0  0.2519401071755727  0.30252524300653505  0.06817794526266141  1.0000
  O   O6        1.0  0.3251164910760309  0.6327329145606981  0.4447802833508248  1.0000
  O   O7        1.0  0.24839939799943878  0.9000645486134022  0.300471691151742  1.0000
  O   O8        1.0  0.6077034951507017  0.9712598418851037  0.5282410680695335  1.0000
