data_image0
_chemical_formula_structural       Zr4O8
_chemical_formula_sum              "Zr4 O8"
_cell_length_a       5.1539878367877705
_cell_length_b       5.22810872
_cell_length_c       5.329696159145639
_cell_angle_alpha    90.0
_cell_angle_beta     99.43692258379697
_cell_angle_gamma    90.0

_space_group_name_H-M_alt    "P 1"
_space_group_IT_number       1

loop_
  _space_group_symop_operation_xyz
  'x, y, z'

loop_
  _atom_site_type_symbol
  _atom_site_label
  _atom_site_symmetry_multiplicity
  _atom_site_fract_x
  _atom_site_fract_y
  _atom_site_fract_z
  _atom_site_occupancy
  Zr  Zr1       1.0  0.20789219088286792  0.019031327853772595  0.3532252260129649  1.0000
  Zr  Zr2       1.0  0.40634922462173684  0.8977048931335876  0.14736380960636009  1.0000
  Zr  Zr3       1.0  0.6427088701114343  0.8501895772271564  0.9718452817147423  1.0000
  Zr  Zr4       1.0  0.38456260086847316  0.8961185582624873  0.6653198813322376  1.0000
  O   O1        1.0  0.2503255536109492  0.7416586166445427  0.3220697144955196  1.0000
  O   O2        1.0  0.5174175759868636  0.14599709668423344  0.5316236814102262  1.0000
  O   O3        1.0  0.2153224233180273  0.09617790363970968  0.8406682177754359  1.0000
  O   O4        1.0  0.741866095993462  0.5220368396631834  0.909119423463042  1.0000
  O   O5        1.0  0.6882903333259875  0.9035330740764813  0.07091886090877608  1.0000
  O   O6        1.0  0.8976707115362998  0.31479688675802464  0.7575255243984316  1.0000
  O   O7        1.0  0.9723907526139506  0.5246074509090093  0.001931426172845363  1.0000
  O   O8        1.0  0.08919939307403801  0.11789059287816528  0.2620865956910894  1.0000
