data_image0
_chemical_formula_structural       Zr4O8
_chemical_formula_sum              "Zr4 O8"
_cell_length_a       5.1539878367877705
_cell_length_b       5.22810872
_cell_length_c       5.329696159145639
_cell_angle_alpha    90.0
_cell_angle_beta     99.43692258379697
_cell_angle_gamma    90.0

_space_group_name_H-M_alt    "P 1"
_space_group_IT_number       1

loop_
  _space_group_symop_operation_xyz
  'x, y, z'

loop_
  _atom_site_type_symbol
  _atom_site_label
  _atom_site_symmetry_multiplicity
  _atom_site_fract_x
  _atom_site_fract_y
  _atom_site_fract_z
  _atom_site_occupancy
  Zr  Zr1       1.0  0.022285827660846635  0.1258181053194818  0.006767552803982113  1.0000
  Zr  Zr2       1.0  0.8409465943201031  0.7485811850590567  0.027304290740262083  1.0000
  Zr  Zr3       1.0  0.7472244588440731  0.980036616538186  0.6966459040328967  1.0000
  Zr  Zr4       1.0  0.4259527828071872  0.035357748386786625  0.6497347797500108  1.0000
  O   O1        1.0  0.10997302366240902  0.7957404874751397  0.07925819297370751  1.0000
  O   O2        1.0  0.1614742117801029  0.38555888357122114  0.2763322514444688  1.0000
  O   O3        1.0  0.6249378527492979  0.0791485239131191  0.09900136188051079  1.0000
  O   O4        1.0  0.8948210693053529  0.788057561136398  0.83865542966522  1.0000
  O   O5        1.0  0.8618585155127665  0.7668592225508633  0.4710794209375493  1.0000
  O   O6        1.0  0.1028796003962924  0.5638142885105779  0.6072429319983805  1.0000
  O   O7        1.0  0.16676418630310152  0.9998503810476365  0.25488884732973816  1.0000
  O   O8        1.0  0.6607140173923902  0.5960933259253149  0.6778667944289243  1.0000
