data_image0
_chemical_formula_structural       Zr4O8
_chemical_formula_sum              "Zr4 O8"
_cell_length_a       5.1539878367877705
_cell_length_b       5.22810872
_cell_length_c       5.329696159145639
_cell_angle_alpha    90.0
_cell_angle_beta     99.43692258379697
_cell_angle_gamma    90.0

_space_group_name_H-M_alt    "P 1"
_space_group_IT_number       1

loop_
  _space_group_symop_operation_xyz
  'x, y, z'

loop_
  _atom_site_type_symbol
  _atom_site_label
  _atom_site_symmetry_multiplicity
  _atom_site_fract_x
  _atom_site_fract_y
  _atom_site_fract_z
  _atom_site_occupancy
  Zr  Zr1       1.0  0.3198477938340947  0.9855022900037671  0.8417524829115448  1.0000
  Zr  Zr2       1.0  0.3993519784669868  0.2164486100033578  0.25409263891488365  1.0000
  Zr  Zr3       1.0  0.5367001430341336  0.26949305192332584  0.7379759830833472  1.0000
  Zr  Zr4       1.0  0.8836569055085386  0.20419372023701854  0.7601672940174744  1.0000
  O   O1        1.0  0.19272263952098712  0.29861518468216985  0.6252588951423306  1.0000
  O   O2        1.0  0.2619552112127561  0.891614936958101  0.6080026428634362  1.0000
  O   O3        1.0  0.9825004647836706  0.9047826285075384  0.48099527296802336  1.0000
  O   O4        1.0  0.0805423288138698  0.0675943081046615  0.32469217366033654  1.0000
  O   O5        1.0  0.9387446996891962  0.2968293314388806  0.932266840558654  1.0000
  O   O6        1.0  0.38223959753723236  0.6715042913677678  0.7821541310416817  1.0000
  O   O7        1.0  0.9367089976872593  0.300577133018761  0.5612403471740635  1.0000
  O   O8        1.0  0.00817872586645052  0.31569128306014704  0.6926656485707472  1.0000
