data_image0
_chemical_formula_structural       Zr4O8
_chemical_formula_sum              "Zr4 O8"
_cell_length_a       5.1539878367877705
_cell_length_b       5.22810872
_cell_length_c       5.329696159145639
_cell_angle_alpha    90.0
_cell_angle_beta     99.43692258379697
_cell_angle_gamma    90.0

_space_group_name_H-M_alt    "P 1"
_space_group_IT_number       1

loop_
  _space_group_symop_operation_xyz
  'x, y, z'

loop_
  _atom_site_type_symbol
  _atom_site_label
  _atom_site_symmetry_multiplicity
  _atom_site_fract_x
  _atom_site_fract_y
  _atom_site_fract_z
  _atom_site_occupancy
  Zr  Zr1       1.0  0.9708816520287478  0.47446507103941116  0.16637486369674193  1.0000
  Zr  Zr2       1.0  0.038705807814999105  0.11102344127176994  0.23477482699221586  1.0000
  Zr  Zr3       1.0  0.30487760489888016  0.11231417218500539  0.9845779251240891  1.0000
  Zr  Zr4       1.0  0.5440515491204105  0.012557382421579888  0.7538440645653193  1.0000
  O   O1        1.0  0.8865993716679377  0.9369402550604526  0.5004596130533141  1.0000
  O   O2        1.0  0.7102075824629352  0.7111183240806582  0.6726543920055548  1.0000
  O   O3        1.0  0.6762559204801875  0.9411091625028831  0.11953503601979776  1.0000
  O   O4        1.0  0.6994096570715627  0.3269068930368988  0.22608390968712655  1.0000
  O   O5        1.0  0.5900036646898936  0.9416171939753681  0.4287201167785071  1.0000
  O   O6        1.0  0.10255723199848177  0.8604899172255358  0.8307767654543281  1.0000
  O   O7        1.0  0.9157127177200914  0.3452236898245342  0.9924984411731081  1.0000
  O   O8        1.0  0.5305106063445126  0.7154221405354626  0.009430530265236214  1.0000
