data_image0
_chemical_formula_structural       Zr4O8
_chemical_formula_sum              "Zr4 O8"
_cell_length_a       5.1539878367877705
_cell_length_b       5.22810872
_cell_length_c       5.329696159145639
_cell_angle_alpha    90.0
_cell_angle_beta     99.43692258379697
_cell_angle_gamma    90.0

_space_group_name_H-M_alt    "P 1"
_space_group_IT_number       1

loop_
  _space_group_symop_operation_xyz
  'x, y, z'

loop_
  _atom_site_type_symbol
  _atom_site_label
  _atom_site_symmetry_multiplicity
  _atom_site_fract_x
  _atom_site_fract_y
  _atom_site_fract_z
  _atom_site_occupancy
  Zr  Zr1       1.0  0.6563161002131359  0.29669634262295475  0.8685512051138025  1.0000
  Zr  Zr2       1.0  0.34712085262505354  0.8835866078798702  0.11822719589462771  1.0000
  Zr  Zr3       1.0  0.17335597751747578  0.0626559828273886  0.39722011401763346  1.0000
  Zr  Zr4       1.0  0.8436205825088239  0.67049467438778  0.2730550931411351  1.0000
  O   O1        1.0  0.9957990872716067  0.718190626591209  0.24589748169153225  1.0000
  O   O2        1.0  0.7206911569848611  0.6606834247114364  0.8142993129314222  1.0000
  O   O3        1.0  0.08998231327367634  0.15813896384086057  0.9348009187052924  1.0000
  O   O4        1.0  0.5607028140888133  0.3136854865320231  0.601785274683087  1.0000
  O   O5        1.0  0.1776841964991105  0.44362738770884924  0.011573257539311044  1.0000
  O   O6        1.0  0.2588934006177155  0.6757828626253612  0.9008325568097924  1.0000
  O   O7        1.0  0.9651333695293403  0.29257124184956496  0.06015722353652109  1.0000
  O   O8        1.0  0.8334851260067258  0.12180351455338823  0.6153326211339145  1.0000
