data_image0
_chemical_formula_structural       Zr4O8
_chemical_formula_sum              "Zr4 O8"
_cell_length_a       5.1539878367877705
_cell_length_b       5.22810872
_cell_length_c       5.329696159145639
_cell_angle_alpha    90.0
_cell_angle_beta     99.43692258379697
_cell_angle_gamma    90.0

_space_group_name_H-M_alt    "P 1"
_space_group_IT_number       1

loop_
  _space_group_symop_operation_xyz
  'x, y, z'

loop_
  _atom_site_type_symbol
  _atom_site_label
  _atom_site_symmetry_multiplicity
  _atom_site_fract_x
  _atom_site_fract_y
  _atom_site_fract_z
  _atom_site_occupancy
  Zr  Zr1       1.0  0.7307422303096409  0.6805023785332995  0.29176457937949607  1.0000
  Zr  Zr2       1.0  0.94913533622287  0.4371011898167687  0.8131858431203192  1.0000
  Zr  Zr3       1.0  0.9741752410357112  0.9471105332908287  0.3627606084624808  1.0000
  Zr  Zr4       1.0  0.3114505874854432  0.4775898925903075  0.7702436815698017  1.0000
  O   O1        1.0  0.3035691451160787  0.2691483211373793  0.31378970267387984  1.0000
  O   O2        1.0  0.6281221515329509  0.6644486986215918  0.9426045583829072  1.0000
  O   O3        1.0  0.7066057442842952  0.7077074067062024  0.8684824746489355  1.0000
  O   O4        1.0  0.8862120694134568  0.20916305257643186  0.5639365460843759  1.0000
  O   O5        1.0  0.9104972073999971  0.8108296862785203  0.9242544814583695  1.0000
  O   O6        1.0  0.6445081020204846  0.6047918916075545  0.32733460142682835  1.0000
  O   O7        1.0  0.14557822510645246  0.6826361382838986  0.5839893263698954  1.0000
  O   O8        1.0  0.29681019921408947  0.8272936680841312  0.8885287763565799  1.0000
