data_image0
_chemical_formula_structural       Zr4O8
_chemical_formula_sum              "Zr4 O8"
_cell_length_a       5.1539878367877705
_cell_length_b       5.22810872
_cell_length_c       5.329696159145639
_cell_angle_alpha    90.0
_cell_angle_beta     99.43692258379697
_cell_angle_gamma    90.0

_space_group_name_H-M_alt    "P 1"
_space_group_IT_number       1

loop_
  _space_group_symop_operation_xyz
  'x, y, z'

loop_
  _atom_site_type_symbol
  _atom_site_label
  _atom_site_symmetry_multiplicity
  _atom_site_fract_x
  _atom_site_fract_y
  _atom_site_fract_z
  _atom_site_occupancy
  Zr  Zr1       1.0  0.4261036314415225  0.6520148659603731  0.08044637543818212  1.0000
  Zr  Zr2       1.0  0.34465072006409203  0.9150463551739776  0.5208785535525342  1.0000
  Zr  Zr3       1.0  0.9046791760531891  0.04038679370366971  0.5864463484195657  1.0000
  Zr  Zr4       1.0  0.11389921786133073  0.8476116206948632  0.645085209043117  1.0000
  O   O1        1.0  0.2484237845766124  0.9158378280576827  0.024850611786014554  1.0000
  O   O2        1.0  0.8292101975331629  0.7925677300218297  0.7384070694222067  1.0000
  O   O3        1.0  0.22753201262390377  0.2386333409867163  0.7378301061308026  1.0000
  O   O4        1.0  0.6209369706607433  0.4803066426005671  0.7307019793582761  1.0000
  O   O5        1.0  0.29938782573148615  0.0349225447448589  0.8834295684128737  1.0000
  O   O6        1.0  0.9949654606455152  0.45580336658791154  0.23150739373715012  1.0000
  O   O7        1.0  0.5749180740819382  0.5086197012547178  0.2529561276460015  1.0000
  O   O8        1.0  0.5296663622822964  0.19082570834474666  0.49608122975604374  1.0000
