data_image0
_chemical_formula_structural       Zr4O8
_chemical_formula_sum              "Zr4 O8"
_cell_length_a       5.1539878367877705
_cell_length_b       5.22810872
_cell_length_c       5.329696159145639
_cell_angle_alpha    90.0
_cell_angle_beta     99.43692258379697
_cell_angle_gamma    90.0

_space_group_name_H-M_alt    "P 1"
_space_group_IT_number       1

loop_
  _space_group_symop_operation_xyz
  'x, y, z'

loop_
  _atom_site_type_symbol
  _atom_site_label
  _atom_site_symmetry_multiplicity
  _atom_site_fract_x
  _atom_site_fract_y
  _atom_site_fract_z
  _atom_site_occupancy
  Zr  Zr1       1.0  0.34293330258591226  0.5397782800211672  0.4529017864492122  1.0000
  Zr  Zr2       1.0  0.1376402997180195  0.8422261054728502  0.6118775119096753  1.0000
  Zr  Zr3       1.0  0.45189143279095667  0.07060035909036776  0.4153374880155307  1.0000
  Zr  Zr4       1.0  0.6955539610726209  0.07966248485639649  0.39563948587101816  1.0000
  O   O1        1.0  0.7332414489032466  0.8017507973763323  0.8656187283905918  1.0000
  O   O2        1.0  0.2034438359783577  0.014142610256470123  0.39460660728842356  1.0000
  O   O3        1.0  0.8715740147129516  0.7612965095236238  0.7731261803034677  1.0000
  O   O4        1.0  0.5289558445189511  0.03145556874699906  0.9880050816625818  1.0000
  O   O5        1.0  0.8149599502523852  0.8730747077670049  0.07366918895072594  1.0000
  O   O6        1.0  0.35840410226287744  0.624487868233234  0.8943144997663914  1.0000
  O   O7        1.0  0.8135037332728228  0.4263400867791609  0.4811331220139934  1.0000
  O   O8        1.0  0.4412239439203187  0.8971353423936321  0.4733818162206409  1.0000
