data_image0
_chemical_formula_structural       Zr4O8
_chemical_formula_sum              "Zr4 O8"
_cell_length_a       5.1539878367877705
_cell_length_b       5.22810872
_cell_length_c       5.329696159145639
_cell_angle_alpha    90.0
_cell_angle_beta     99.43692258379697
_cell_angle_gamma    90.0

_space_group_name_H-M_alt    "P 1"
_space_group_IT_number       1

loop_
  _space_group_symop_operation_xyz
  'x, y, z'

loop_
  _atom_site_type_symbol
  _atom_site_label
  _atom_site_symmetry_multiplicity
  _atom_site_fract_x
  _atom_site_fract_y
  _atom_site_fract_z
  _atom_site_occupancy
  Zr  Zr1       1.0  0.9825826562383124  0.8070890094374956  0.6402425548528803  1.0000
  Zr  Zr2       1.0  0.6732924798807494  0.16510915600211717  0.7012332918455932  1.0000
  Zr  Zr3       1.0  0.674650084130815  0.2478386590926256  0.7604514645390061  1.0000
  Zr  Zr4       1.0  0.5556737754939949  0.48830180347074226  0.6526363493162393  1.0000
  O   O1        1.0  0.2358868480582199  0.8620025220571623  0.6510991332396578  1.0000
  O   O2        1.0  0.781862326467607  0.6653045595792264  0.13534411173598282  1.0000
  O   O3        1.0  0.5100977418819639  0.6898165931782856  0.1500454639939317  1.0000
  O   O4        1.0  0.4359537863343448  0.05053359445462746  0.6565306377664939  1.0000
  O   O5        1.0  0.3694160596787768  0.5828011566668465  0.9279221759050058  1.0000
  O   O6        1.0  0.658439352813577  0.7955751289861759  0.175567647367199  1.0000
  O   O7        1.0  0.2665025283078464  0.820456203711009  0.6645754908248946  1.0000
  O   O8        1.0  0.1541684366545335  0.04046151420397592  0.1321646995345489  1.0000
