data_image0
_chemical_formula_structural       Zr4O8
_chemical_formula_sum              "Zr4 O8"
_cell_length_a       5.1539878367877705
_cell_length_b       5.22810872
_cell_length_c       5.329696159145639
_cell_angle_alpha    90.0
_cell_angle_beta     99.43692258379697
_cell_angle_gamma    90.0

_space_group_name_H-M_alt    "P 1"
_space_group_IT_number       1

loop_
  _space_group_symop_operation_xyz
  'x, y, z'

loop_
  _atom_site_type_symbol
  _atom_site_label
  _atom_site_symmetry_multiplicity
  _atom_site_fract_x
  _atom_site_fract_y
  _atom_site_fract_z
  _atom_site_occupancy
  Zr  Zr1       1.0  0.5206518484716036  0.29112731513069257  0.27891800346095774  1.0000
  Zr  Zr2       1.0  0.26334665795403467  0.4666490639417855  0.38721356445411015  1.0000
  Zr  Zr3       1.0  0.24745029660224205  0.3229125146422067  0.7271656654377026  1.0000
  Zr  Zr4       1.0  0.053608921360546624  0.3027579002222307  0.8686512497859482  1.0000
  O   O1        1.0  0.45554320212352195  0.7649044555331725  0.6182085254618599  1.0000
  O   O2        1.0  0.6800491763032639  0.18705356739790346  0.28832362160797587  1.0000
  O   O3        1.0  0.5447114239426298  0.8675960113884997  0.14623914963550222  1.0000
  O   O4        1.0  0.4409780618466641  0.2546464057145794  0.7186278286982741  1.0000
  O   O5        1.0  0.05930904181035146  0.9152601196374377  0.11913640263524705  1.0000
  O   O6        1.0  0.5976459173202606  0.2870451906488327  0.5824492671015382  1.0000
  O   O7        1.0  0.0964049844837227  0.6679811940842102  0.7592202828346117  1.0000
  O   O8        1.0  0.6387311789607821  0.7821450616034511  0.09908186494991611  1.0000
