data_image0
_chemical_formula_structural       Zr4O8
_chemical_formula_sum              "Zr4 O8"
_cell_length_a       5.1539878367877705
_cell_length_b       5.22810872
_cell_length_c       5.329696159145639
_cell_angle_alpha    90.0
_cell_angle_beta     99.43692258379697
_cell_angle_gamma    90.0

_space_group_name_H-M_alt    "P 1"
_space_group_IT_number       1

loop_
  _space_group_symop_operation_xyz
  'x, y, z'

loop_
  _atom_site_type_symbol
  _atom_site_label
  _atom_site_symmetry_multiplicity
  _atom_site_fract_x
  _atom_site_fract_y
  _atom_site_fract_z
  _atom_site_occupancy
  Zr  Zr1       1.0  0.7095970244661198  0.5146981298613369  0.29489366052254695  1.0000
  Zr  Zr2       1.0  0.4050120464591682  0.3844034044431588  0.30788828789010836  1.0000
  Zr  Zr3       1.0  0.656728425158839  0.8936991548363333  0.07732672005734997  1.0000
  Zr  Zr4       1.0  0.9837174715962926  0.005417304030466141  0.501086240883577  1.0000
  O   O1        1.0  0.23202393110662456  0.5689714975100557  0.7191646974776553  1.0000
  O   O2        1.0  0.5355117497095367  0.06789785923826486  0.9473448613972797  1.0000
  O   O3        1.0  0.8208394050290027  0.2594180093525189  0.6340857947079108  1.0000
  O   O4        1.0  0.8562486139268692  0.5743804332880105  0.270311192763073  1.0000
  O   O5        1.0  0.9933979574328653  0.22769452250202704  0.607126741805935  1.0000
  O   O6        1.0  0.9447039513333699  0.04354749540634373  0.7013442098443967  1.0000
  O   O7        1.0  0.5810460621970499  0.7066373530059877  0.9669582492671083  1.0000
  O   O8        1.0  0.048058978337897074  0.4296452067632117  0.34389961517038614  1.0000
