data_image0
_chemical_formula_structural       Zr4O8
_chemical_formula_sum              "Zr4 O8"
_cell_length_a       5.1539878367877705
_cell_length_b       5.22810872
_cell_length_c       5.329696159145639
_cell_angle_alpha    90.0
_cell_angle_beta     99.43692258379697
_cell_angle_gamma    90.0

_space_group_name_H-M_alt    "P 1"
_space_group_IT_number       1

loop_
  _space_group_symop_operation_xyz
  'x, y, z'

loop_
  _atom_site_type_symbol
  _atom_site_label
  _atom_site_symmetry_multiplicity
  _atom_site_fract_x
  _atom_site_fract_y
  _atom_site_fract_z
  _atom_site_occupancy
  Zr  Zr1       1.0  0.7217638184629882  0.478389787122838  0.5667800389507271  1.0000
  Zr  Zr2       1.0  0.002745315587132424  0.3558516899293771  0.20730996415238145  1.0000
  Zr  Zr3       1.0  0.45743696835593184  0.4996690049442991  0.4836206229063391  1.0000
  Zr  Zr4       1.0  0.04442193828447172  0.8176836628196442  0.030268045658117693  1.0000
  O   O1        1.0  0.2359130151786033  0.7085359108063543  0.30795625355659695  1.0000
  O   O2        1.0  0.7250351795723855  0.8683205822929629  0.258514406139684  1.0000
  O   O3        1.0  0.34574509656735053  0.6977616396415129  0.44476551433146483  1.0000
  O   O4        1.0  0.0356717097500443  0.45901812540366205  0.017218751844715996  1.0000
  O   O5        1.0  0.7584037513448785  0.4086949746906845  0.2783735676190737  1.0000
  O   O6        1.0  0.838687840125889  0.30298258412268275  0.41850908220138194  1.0000
  O   O7        1.0  0.37536191810009356  0.8847804034464124  0.2831136345269165  1.0000
  O   O8        1.0  0.1996369500632973  0.3884599277486416  0.35660409484579736  1.0000
