data_image0
_chemical_formula_structural       Zr4O8
_chemical_formula_sum              "Zr4 O8"
_cell_length_a       5.1539878367877705
_cell_length_b       5.22810872
_cell_length_c       5.329696159145639
_cell_angle_alpha    90.0
_cell_angle_beta     99.43692258379697
_cell_angle_gamma    90.0

_space_group_name_H-M_alt    "P 1"
_space_group_IT_number       1

loop_
  _space_group_symop_operation_xyz
  'x, y, z'

loop_
  _atom_site_type_symbol
  _atom_site_label
  _atom_site_symmetry_multiplicity
  _atom_site_fract_x
  _atom_site_fract_y
  _atom_site_fract_z
  _atom_site_occupancy
  Zr  Zr1       1.0  0.19780216264391814  0.21845235873933255  0.7186977880914043  1.0000
  Zr  Zr2       1.0  0.7946825206837396  0.4563657236371732  0.8254713530651596  1.0000
  Zr  Zr3       1.0  0.004887036598919536  0.6324193036125827  0.32198181451971397  1.0000
  Zr  Zr4       1.0  0.2058654290727282  0.2507191194548284  0.5998837128077827  1.0000
  O   O1        1.0  0.20724823971725925  0.10048725773420841  0.9325232750110288  1.0000
  O   O2        1.0  0.6252241998860981  0.17461000112541392  0.6657481966384893  1.0000
  O   O3        1.0  0.39149555582479056  0.9138501182235892  0.21838263345489395  1.0000
  O   O4        1.0  0.26531382833677597  0.3220367510773883  0.5993406987051699  1.0000
  O   O5        1.0  0.47210613604762464  0.3505799481662386  0.20854733870985243  1.0000
  O   O6        1.0  0.6563357457921413  0.48635420662824913  0.9456650301675795  1.0000
  O   O7        1.0  0.028575491750702398  0.613990163713872  0.3854563062551364  1.0000
  O   O8        1.0  0.25129217665351433  0.5512650023118084  0.054475908714825216  1.0000
