data_image0
_chemical_formula_structural       Zr4O8
_chemical_formula_sum              "Zr4 O8"
_cell_length_a       5.1539878367877705
_cell_length_b       5.22810872
_cell_length_c       5.329696159145639
_cell_angle_alpha    90.0
_cell_angle_beta     99.43692258379697
_cell_angle_gamma    90.0

_space_group_name_H-M_alt    "P 1"
_space_group_IT_number       1

loop_
  _space_group_symop_operation_xyz
  'x, y, z'

loop_
  _atom_site_type_symbol
  _atom_site_label
  _atom_site_symmetry_multiplicity
  _atom_site_fract_x
  _atom_site_fract_y
  _atom_site_fract_z
  _atom_site_occupancy
  Zr  Zr1       1.0  0.4605964043711763  0.9627694976934382  0.7234200276711436  1.0000
  Zr  Zr2       1.0  0.7288278879103558  0.014758597539760387  0.2846726053920605  1.0000
  Zr  Zr3       1.0  0.4858775029861029  0.38568809677391225  0.18639716991595812  1.0000
  Zr  Zr4       1.0  0.13574243255394036  0.6207824563972553  0.16286453010086888  1.0000
  O   O1        1.0  0.2936952351132902  0.17767516445104725  0.5831851771203667  1.0000
  O   O2        1.0  0.2189265362175865  0.12713206246898068  0.9157688741012886  1.0000
  O   O3        1.0  0.8333890411255851  0.4776237832879868  0.5979663631561944  1.0000
  O   O4        1.0  0.1216936279088543  0.80883666066239  0.11742183651875293  1.0000
  O   O5        1.0  0.0438038756999406  0.9992881107353835  0.7299426034006515  1.0000
  O   O6        1.0  0.010601283782499138  0.15989070196390287  0.6844388063887337  1.0000
  O   O7        1.0  0.9604641935321183  0.3819928893916469  0.4344341955732034  1.0000
  O   O8        1.0  0.6804253227520434  0.35075688347301437  0.054385008729232354  1.0000
