data_image0
_chemical_formula_structural       Zr4O8
_chemical_formula_sum              "Zr4 O8"
_cell_length_a       5.1539878367877705
_cell_length_b       5.22810872
_cell_length_c       5.329696159145639
_cell_angle_alpha    90.0
_cell_angle_beta     99.43692258379697
_cell_angle_gamma    90.0

_space_group_name_H-M_alt    "P 1"
_space_group_IT_number       1

loop_
  _space_group_symop_operation_xyz
  'x, y, z'

loop_
  _atom_site_type_symbol
  _atom_site_label
  _atom_site_symmetry_multiplicity
  _atom_site_fract_x
  _atom_site_fract_y
  _atom_site_fract_z
  _atom_site_occupancy
  Zr  Zr1       1.0  0.28348067320619563  0.7974721038739174  0.6615523220404338  1.0000
  Zr  Zr2       1.0  0.23704357951218658  0.2639545862275998  0.21916924791600945  1.0000
  Zr  Zr3       1.0  0.5241442803677923  0.09108813674293993  0.832109175461188  1.0000
  Zr  Zr4       1.0  0.1056341363449671  0.7640261183822479  0.0780097687412169  1.0000
  O   O1        1.0  0.9823269813433271  0.8612358602603765  0.7139821190990645  1.0000
  O   O2        1.0  0.38968421140526566  0.6292310599000586  0.25644138701899477  1.0000
  O   O3        1.0  0.4822719349549214  0.0672723838291045  0.2958639918277228  1.0000
  O   O4        1.0  0.08620442187365984  0.9723474002579948  0.15787177271907993  1.0000
  O   O5        1.0  0.7658988360716368  0.3942477571508398  0.3720691050202407  1.0000
  O   O6        1.0  0.6129525575067518  0.34619158614097945  0.2740830813766575  1.0000
  O   O7        1.0  0.9364881768874884  0.5231852770638858  0.9088574925635768  1.0000
  O   O8        1.0  0.09257518031895273  0.9463193106649044  0.9894616283516751  1.0000
