data_image0
_chemical_formula_structural       Zr4O8
_chemical_formula_sum              "Zr4 O8"
_cell_length_a       5.1539878367877705
_cell_length_b       5.22810872
_cell_length_c       5.329696159145639
_cell_angle_alpha    90.0
_cell_angle_beta     99.43692258379697
_cell_angle_gamma    90.0

_space_group_name_H-M_alt    "P 1"
_space_group_IT_number       1

loop_
  _space_group_symop_operation_xyz
  'x, y, z'

loop_
  _atom_site_type_symbol
  _atom_site_label
  _atom_site_symmetry_multiplicity
  _atom_site_fract_x
  _atom_site_fract_y
  _atom_site_fract_z
  _atom_site_occupancy
  Zr  Zr1       1.0  0.8908996778541547  0.8602228797978597  0.2605246409042312  1.0000
  Zr  Zr2       1.0  0.06775010671461068  0.6391017199546916  0.45621401759460056  1.0000
  Zr  Zr3       1.0  0.8399136771275444  0.5174602783205544  0.022891124727330237  1.0000
  Zr  Zr4       1.0  0.159049598280655  0.4235753985077668  0.6222708253277709  1.0000
  O   O1        1.0  0.8237339524745408  0.3583571200055502  0.5399708127612151  1.0000
  O   O2        1.0  0.2585565710865061  0.5986092962600154  0.9597796358718682  1.0000
  O   O3        1.0  0.2006632457020645  0.9317465589994676  0.6423089276763747  1.0000
  O   O4        1.0  0.26186573356432774  0.6025162476471007  0.2132016617360648  1.0000
  O   O5        1.0  0.22572429242800673  0.6005821670175902  0.7851416982768811  1.0000
  O   O6        1.0  0.5605719078230038  0.7468621952475871  0.8038619024698441  1.0000
  O   O7        1.0  0.3113958684206004  0.9408025178463113  0.38594820625807813  1.0000
  O   O8        1.0  0.30220524050725395  0.25405208828048664  0.5797208341295583  1.0000
