data_image0
_chemical_formula_structural       Zr4O8
_chemical_formula_sum              "Zr4 O8"
_cell_length_a       5.1539878367877705
_cell_length_b       5.22810872
_cell_length_c       5.329696159145639
_cell_angle_alpha    90.0
_cell_angle_beta     99.43692258379697
_cell_angle_gamma    90.0

_space_group_name_H-M_alt    "P 1"
_space_group_IT_number       1

loop_
  _space_group_symop_operation_xyz
  'x, y, z'

loop_
  _atom_site_type_symbol
  _atom_site_label
  _atom_site_symmetry_multiplicity
  _atom_site_fract_x
  _atom_site_fract_y
  _atom_site_fract_z
  _atom_site_occupancy
  Zr  Zr1       1.0  0.14860287402099104  0.7811397804736693  0.6182900131993563  1.0000
  Zr  Zr2       1.0  0.4291553187827555  0.49823996839881124  0.7027545751198856  1.0000
  Zr  Zr3       1.0  0.4410240989841201  0.5561024837102408  0.5577521676595123  1.0000
  Zr  Zr4       1.0  0.5199539876993415  0.10441621931478906  0.4126807410328581  1.0000
  O   O1        1.0  0.7620355396705278  0.7533997237610279  0.31065099175230415  1.0000
  O   O2        1.0  0.002602880662252005  0.3806787856784837  0.9592627969039071  1.0000
  O   O3        1.0  0.40270737397293743  0.8040216170598882  0.5223956917519459  1.0000
  O   O4        1.0  0.22434797383728267  0.2566274608358654  0.03427440175384788  1.0000
  O   O5        1.0  0.9542217641670163  0.7642960753906607  0.04494316590922409  1.0000
  O   O6        1.0  0.19230839006295497  0.059402137815119715  0.7572791073996887  1.0000
  O   O7        1.0  0.2435273941056959  0.47577662385908104  0.6654800815844588  1.0000
  O   O8        1.0  0.7263686066222079  0.6840966333921574  0.37857434295145964  1.0000
