data_image0
_chemical_formula_structural       Zr4O8
_chemical_formula_sum              "Zr4 O8"
_cell_length_a       5.1539878367877705
_cell_length_b       5.22810872
_cell_length_c       5.329696159145639
_cell_angle_alpha    90.0
_cell_angle_beta     99.43692258379697
_cell_angle_gamma    90.0

_space_group_name_H-M_alt    "P 1"
_space_group_IT_number       1

loop_
  _space_group_symop_operation_xyz
  'x, y, z'

loop_
  _atom_site_type_symbol
  _atom_site_label
  _atom_site_symmetry_multiplicity
  _atom_site_fract_x
  _atom_site_fract_y
  _atom_site_fract_z
  _atom_site_occupancy
  Zr  Zr1       1.0  0.544563384762121  0.5889356061976239  0.5926404855920122  1.0000
  Zr  Zr2       1.0  0.1868685399240988  0.36679336568960075  0.38467510223555346  1.0000
  Zr  Zr3       1.0  0.14996046444839894  0.7280698577723919  0.65489095019639  1.0000
  Zr  Zr4       1.0  0.42084532563970267  0.49858984929814176  0.7640625102269156  1.0000
  O   O1        1.0  0.2695014079633342  0.7127325796398436  0.43471340076269627  1.0000
  O   O2        1.0  0.1656068586035193  0.9861535103959433  0.15667538589731445  1.0000
  O   O3        1.0  0.5552901361921023  0.36101824231500323  0.12828703540063913  1.0000
  O   O4        1.0  0.6448779585657367  0.9382290535710212  0.9139080445552743  1.0000
  O   O5        1.0  0.3670223407085853  0.18769054954669784  0.62737002924719  1.0000
  O   O6        1.0  0.3893932336967225  0.00746203269853174  0.7765206287511166  1.0000
  O   O7        1.0  0.3678817297200556  0.9916858071964831  0.5340284221518452  1.0000
  O   O8        1.0  0.037351944020315386  0.43568578881095377  0.7490941977162269  1.0000
