data_image0
_chemical_formula_structural       Zr4O8
_chemical_formula_sum              "Zr4 O8"
_cell_length_a       5.1539878367877705
_cell_length_b       5.22810872
_cell_length_c       5.329696159145639
_cell_angle_alpha    90.0
_cell_angle_beta     99.43692258379697
_cell_angle_gamma    90.0

_space_group_name_H-M_alt    "P 1"
_space_group_IT_number       1

loop_
  _space_group_symop_operation_xyz
  'x, y, z'

loop_
  _atom_site_type_symbol
  _atom_site_label
  _atom_site_symmetry_multiplicity
  _atom_site_fract_x
  _atom_site_fract_y
  _atom_site_fract_z
  _atom_site_occupancy
  Zr  Zr1       1.0  0.9507687168780423  0.4767980202454041  0.4024539880493765  1.0000
  Zr  Zr2       1.0  0.5165102355995845  0.015045550271263863  0.21892955722583274  1.0000
  Zr  Zr3       1.0  0.5133076533012457  0.9945125804428816  0.9516560980491651  1.0000
  Zr  Zr4       1.0  0.2983509609470545  0.9347350480059378  0.6655428228147304  1.0000
  O   O1        1.0  0.23123063044256043  0.09270355965539767  0.496159898195927  1.0000
  O   O2        1.0  0.7592333843919334  0.5157290180989591  0.17239136591371906  1.0000
  O   O3        1.0  0.9598536484967326  0.47654726313739815  0.6067773418250262  1.0000
  O   O4        1.0  0.03508073902329656  0.2337998168433124  0.36745043248622267  1.0000
  O   O5        1.0  0.7071825145310839  0.45508041834958135  0.2706639564057145  1.0000
  O   O6        1.0  0.20716559231006926  0.25759473329635085  0.15855431282689647  1.0000
  O   O7        1.0  0.9890623235560945  0.29091897928975996  0.5476641182174049  1.0000
  O   O8        1.0  0.07907469725316352  0.7391281181112532  0.6478939392950807  1.0000
