data_image0
_chemical_formula_structural       Zr4O8
_chemical_formula_sum              "Zr4 O8"
_cell_length_a       5.1539878367877705
_cell_length_b       5.22810872
_cell_length_c       5.329696159145639
_cell_angle_alpha    90.0
_cell_angle_beta     99.43692258379697
_cell_angle_gamma    90.0

_space_group_name_H-M_alt    "P 1"
_space_group_IT_number       1

loop_
  _space_group_symop_operation_xyz
  'x, y, z'

loop_
  _atom_site_type_symbol
  _atom_site_label
  _atom_site_symmetry_multiplicity
  _atom_site_fract_x
  _atom_site_fract_y
  _atom_site_fract_z
  _atom_site_occupancy
  Zr  Zr1       1.0  0.1667136776468574  0.018451885442154037  0.2984155646890265  1.0000
  Zr  Zr2       1.0  0.7301287238048815  0.0866711784696157  0.25417325493308773  1.0000
  Zr  Zr3       1.0  0.9997452586277116  0.5000948330967034  0.0892996419056189  1.0000
  Zr  Zr4       1.0  0.7431930512206226  0.06944551476157734  0.19991812563769606  1.0000
  O   O1        1.0  0.1715492645483785  0.5420884530651797  0.8061283125141667  1.0000
  O   O2        1.0  0.5556511035614022  0.8634358505159554  0.26376159357594986  1.0000
  O   O3        1.0  0.8717446054353815  0.32124980339515474  0.9542447661261342  1.0000
  O   O4        1.0  0.07463010686435112  0.458491793961894  0.3675035321673761  1.0000
  O   O5        1.0  0.561557068344591  0.5478923792384194  0.12145712973834577  1.0000
  O   O6        1.0  0.9508809916717524  0.7461679008609678  0.3918576068273927  1.0000
  O   O7        1.0  0.22190148642216734  0.6045980654617757  0.5347521881501756  1.0000
  O   O8        1.0  0.13113557136022724  0.8585754537164143  0.9904466021604108  1.0000
