data_image0
_chemical_formula_structural       Zr4O8
_chemical_formula_sum              "Zr4 O8"
_cell_length_a       5.1539878367877705
_cell_length_b       5.22810872
_cell_length_c       5.329696159145639
_cell_angle_alpha    90.0
_cell_angle_beta     99.43692258379697
_cell_angle_gamma    90.0

_space_group_name_H-M_alt    "P 1"
_space_group_IT_number       1

loop_
  _space_group_symop_operation_xyz
  'x, y, z'

loop_
  _atom_site_type_symbol
  _atom_site_label
  _atom_site_symmetry_multiplicity
  _atom_site_fract_x
  _atom_site_fract_y
  _atom_site_fract_z
  _atom_site_occupancy
  Zr  Zr1       1.0  0.9377462932165126  0.28969357644264093  0.19661516004305213  1.0000
  Zr  Zr2       1.0  0.16197571416028467  0.41779159268101473  0.6935575163056331  1.0000
  Zr  Zr3       1.0  0.5684522486217132  0.6106718459598062  0.36170607411494693  1.0000
  Zr  Zr4       1.0  0.706203659532429  0.7563536050634951  0.660940611063733  1.0000
  O   O1        1.0  0.0897533669805668  0.7844772558494242  0.530075641763311  1.0000
  O   O2        1.0  0.17777760899823392  0.01492693803041334  0.015169132031367383  1.0000
  O   O3        1.0  0.987785782823801  0.3784782517070937  0.5749215124889417  1.0000
  O   O4        1.0  0.20032802550062168  0.5195676124096631  0.09438896986134537  1.0000
  O   O5        1.0  0.43504902466155215  0.48558370357675784  0.14581741377808055  1.0000
  O   O6        1.0  0.6985951200254945  0.5450365318760717  0.6037700557423911  1.0000
  O   O7        1.0  0.6300444765960869  0.7334353448797017  0.5041905766311867  1.0000
  O   O8        1.0  0.8894778619767294  0.9303906753158202  0.7816223024680085  1.0000
