data_image0
_chemical_formula_structural       Zr4O8
_chemical_formula_sum              "Zr4 O8"
_cell_length_a       5.1539878367877705
_cell_length_b       5.22810872
_cell_length_c       5.329696159145639
_cell_angle_alpha    90.0
_cell_angle_beta     99.43692258379697
_cell_angle_gamma    90.0

_space_group_name_H-M_alt    "P 1"
_space_group_IT_number       1

loop_
  _space_group_symop_operation_xyz
  'x, y, z'

loop_
  _atom_site_type_symbol
  _atom_site_label
  _atom_site_symmetry_multiplicity
  _atom_site_fract_x
  _atom_site_fract_y
  _atom_site_fract_z
  _atom_site_occupancy
  Zr  Zr1       1.0  0.4778924873362751  0.5575115530508814  0.2919134727258157  1.0000
  Zr  Zr2       1.0  0.41544103335784666  0.6644710409665784  0.37741173040107334  1.0000
  Zr  Zr3       1.0  0.5495373895599451  0.536225493986021  0.10356804852172807  1.0000
  Zr  Zr4       1.0  0.9234747547004852  0.25919648170363807  0.8311108842544788  1.0000
  O   O1        1.0  0.5037055870370004  0.07495140102726694  0.4839493257642893  1.0000
  O   O2        1.0  0.17841775530235093  0.8569466746895376  0.601413702106095  1.0000
  O   O3        1.0  0.523425140153563  0.04556324771398579  0.7235590004166745  1.0000
  O   O4        1.0  0.7659144219118357  0.6325340882890202  0.4652289338351805  1.0000
  O   O5        1.0  0.10198984692257884  0.022696323430965393  0.20456056774392906  1.0000
  O   O6        1.0  0.8374701707695413  0.6164144481811284  0.5335939932880227  1.0000
  O   O7        1.0  0.28254057420585355  0.2190712256659939  0.017889268048048024  1.0000
  O   O8        1.0  0.4471416271303994  0.23267489081819548  0.5949593628422187  1.0000
