data_image0
_chemical_formula_structural       Zr4O8
_chemical_formula_sum              "Zr4 O8"
_cell_length_a       5.1539878367877705
_cell_length_b       5.22810872
_cell_length_c       5.329696159145639
_cell_angle_alpha    90.0
_cell_angle_beta     99.43692258379697
_cell_angle_gamma    90.0

_space_group_name_H-M_alt    "P 1"
_space_group_IT_number       1

loop_
  _space_group_symop_operation_xyz
  'x, y, z'

loop_
  _atom_site_type_symbol
  _atom_site_label
  _atom_site_symmetry_multiplicity
  _atom_site_fract_x
  _atom_site_fract_y
  _atom_site_fract_z
  _atom_site_occupancy
  Zr  Zr1       1.0  0.2476674254248712  0.28740345849515236  0.2723273346692787  1.0000
  Zr  Zr2       1.0  0.6564598924712168  0.5677945335984873  0.029062831595641825  1.0000
  Zr  Zr3       1.0  0.7363770722858156  0.4094875974941541  0.6566696028709502  1.0000
  Zr  Zr4       1.0  0.26138798078819514  0.8847243843793109  0.37412836115884873  1.0000
  O   O1        1.0  0.3703599091956207  0.8744653835135665  0.45234292497581663  1.0000
  O   O2        1.0  0.9555265459284512  0.4561364839456816  0.6228953825477781  1.0000
  O   O3        1.0  0.8430764290244444  0.4882056051381438  0.5012701238026835  1.0000
  O   O4        1.0  0.2759867515239449  0.4692191789013427  0.738136499107549  1.0000
  O   O5        1.0  0.9471219846452863  0.9457932618559042  0.5580841844830928  1.0000
  O   O6        1.0  0.9785789324038667  0.21493749717605937  0.7308067749358571  1.0000
  O   O7        1.0  0.07019621149682997  0.23977646163653432  0.4152436835694999  1.0000
  O   O8        1.0  0.18143205339192292  0.24701928898112158  0.4030461516214139  1.0000
