data_image0
_chemical_formula_structural       Zr4O8
_chemical_formula_sum              "Zr4 O8"
_cell_length_a       5.1539878367877705
_cell_length_b       5.22810872
_cell_length_c       5.329696159145639
_cell_angle_alpha    90.0
_cell_angle_beta     99.43692258379697
_cell_angle_gamma    90.0

_space_group_name_H-M_alt    "P 1"
_space_group_IT_number       1

loop_
  _space_group_symop_operation_xyz
  'x, y, z'

loop_
  _atom_site_type_symbol
  _atom_site_label
  _atom_site_symmetry_multiplicity
  _atom_site_fract_x
  _atom_site_fract_y
  _atom_site_fract_z
  _atom_site_occupancy
  Zr  Zr1       1.0  0.40517922038339016  0.9636949869885445  0.9675414795979655  1.0000
  Zr  Zr2       1.0  0.8262190945972954  0.8544542555783226  0.5530769029553695  1.0000
  Zr  Zr3       1.0  0.021073849879567952  0.8919142016726607  0.583431614868605  1.0000
  Zr  Zr4       1.0  0.2643132758878126  0.8670077069752367  0.16418252006459788  1.0000
  O   O1        1.0  0.11713558900137144  0.7127751453829738  0.8361282559294594  1.0000
  O   O2        1.0  0.0774499052614388  0.9908964615366216  0.062129809823989746  1.0000
  O   O3        1.0  0.08833155410920668  0.9746048750052339  0.5845788551332554  1.0000
  O   O4        1.0  0.31948960698515805  0.9508482573613155  0.5042050013377413  1.0000
  O   O5        1.0  0.824373265137762  0.7992504808349139  0.25940351597255074  1.0000
  O   O6        1.0  0.5818576029305156  0.056032450425398395  0.4713431524799194  1.0000
  O   O7        1.0  0.9627540839316175  0.9904243424508135  0.014708071193746619  1.0000
  O   O8        1.0  0.43015506175863294  0.9897459606959167  0.8440517378334391  1.0000
