data_image0
_chemical_formula_structural       Zr4O8
_chemical_formula_sum              "Zr4 O8"
_cell_length_a       5.1539878367877705
_cell_length_b       5.22810872
_cell_length_c       5.329696159145639
_cell_angle_alpha    90.0
_cell_angle_beta     99.43692258379697
_cell_angle_gamma    90.0

_space_group_name_H-M_alt    "P 1"
_space_group_IT_number       1

loop_
  _space_group_symop_operation_xyz
  'x, y, z'

loop_
  _atom_site_type_symbol
  _atom_site_label
  _atom_site_symmetry_multiplicity
  _atom_site_fract_x
  _atom_site_fract_y
  _atom_site_fract_z
  _atom_site_occupancy
  Zr  Zr1       1.0  0.7674999564335145  0.10775806315862368  0.26764604757014165  1.0000
  Zr  Zr2       1.0  0.005691231742620317  0.19266964114158824  0.5569687957075846  1.0000
  Zr  Zr3       1.0  0.22912098756307664  0.43277707714643743  0.3049930895768673  1.0000
  Zr  Zr4       1.0  0.5959589728481189  0.3543993007811892  0.7749876822605266  1.0000
  O   O1        1.0  0.8446918271825865  0.803738260857827  0.7012363661670413  1.0000
  O   O2        1.0  0.8510248277585379  0.5798003368230704  0.028029150735710218  1.0000
  O   O3        1.0  0.785628510045036  0.6869976268597835  0.5555540121389804  1.0000
  O   O4        1.0  0.5973575313511716  0.3183580019684529  0.3145849503023115  1.0000
  O   O5        1.0  0.3067970649764602  0.8970617572900945  0.919391181732319  1.0000
  O   O6        1.0  0.2936408771583956  0.44554113248923244  0.1660226473103188  1.0000
  O   O7        1.0  0.4452253552445127  0.6484226629096685  0.8408169987279166  1.0000
  O   O8        1.0  0.6475001774163154  0.44804697335887056  0.27186832349484735  1.0000
