data_image0
_chemical_formula_structural       Zr4O8
_chemical_formula_sum              "Zr4 O8"
_cell_length_a       5.1539878367877705
_cell_length_b       5.22810872
_cell_length_c       5.329696159145639
_cell_angle_alpha    90.0
_cell_angle_beta     99.43692258379697
_cell_angle_gamma    90.0

_space_group_name_H-M_alt    "P 1"
_space_group_IT_number       1

loop_
  _space_group_symop_operation_xyz
  'x, y, z'

loop_
  _atom_site_type_symbol
  _atom_site_label
  _atom_site_symmetry_multiplicity
  _atom_site_fract_x
  _atom_site_fract_y
  _atom_site_fract_z
  _atom_site_occupancy
  Zr  Zr1       1.0  0.5626316982431767  0.5238028633155842  0.14281238834504606  1.0000
  Zr  Zr2       1.0  0.610370841061739  0.5291093776222684  0.16763035150480476  1.0000
  Zr  Zr3       1.0  0.9311540240269744  0.8890578853768432  0.7901339682564408  1.0000
  Zr  Zr4       1.0  0.505868906083601  0.3778635847752265  0.21453474001835815  1.0000
  O   O1        1.0  0.07137122259193918  0.0631380933916148  0.5738522425725918  1.0000
  O   O2        1.0  0.3116262605757214  0.19529081200309406  0.6269410891807148  1.0000
  O   O3        1.0  0.896462241137634  0.04478489539706487  0.8075378582625561  1.0000
  O   O4        1.0  0.9422094770354956  0.16483980186907843  0.032356939392848005  1.0000
  O   O5        1.0  0.01640853488025229  0.3545240635618043  0.527874147870957  1.0000
  O   O6        1.0  0.9603761466423748  0.5037020166518928  0.9688233471140038  1.0000
  O   O7        1.0  0.9191258011810497  0.4138673158600934  0.6249822210996179  1.0000
  O   O8        1.0  0.8461140339792674  0.03702087748575522  0.764781462743418  1.0000
