data_image0
_chemical_formula_structural       Zr4O8
_chemical_formula_sum              "Zr4 O8"
_cell_length_a       5.1539878367877705
_cell_length_b       5.22810872
_cell_length_c       5.329696159145639
_cell_angle_alpha    90.0
_cell_angle_beta     99.43692258379697
_cell_angle_gamma    90.0

_space_group_name_H-M_alt    "P 1"
_space_group_IT_number       1

loop_
  _space_group_symop_operation_xyz
  'x, y, z'

loop_
  _atom_site_type_symbol
  _atom_site_label
  _atom_site_symmetry_multiplicity
  _atom_site_fract_x
  _atom_site_fract_y
  _atom_site_fract_z
  _atom_site_occupancy
  Zr  Zr1       1.0  0.19279436519318338  0.8716196817085695  0.7110510379642889  1.0000
  Zr  Zr2       1.0  0.5305445217819713  0.809613526954583  0.3775428043846034  1.0000
  Zr  Zr3       1.0  0.41103945525387076  0.1705361740383644  0.9293441691483193  1.0000
  Zr  Zr4       1.0  0.9817286557273999  0.6579635253554024  0.42932625243001254  1.0000
  O   O1        1.0  0.9140718077351866  0.5921999508742957  0.8279320891503268  1.0000
  O   O2        1.0  0.685308316456954  0.5853890906482633  0.30920261711754904  1.0000
  O   O3        1.0  0.8978127242218719  0.6090896771532783  0.1770828881388642  1.0000
  O   O4        1.0  0.21105387722103686  0.49553548609367226  0.3773054291501339  1.0000
  O   O5        1.0  0.9810013680277905  0.2885687893185036  0.8565193613296849  1.0000
  O   O6        1.0  0.5209537362473355  0.223859304953411  0.12569250375201335  1.0000
  O   O7        1.0  0.05086523196388626  0.14027317024439334  0.9565970971490287  1.0000
  O   O8        1.0  0.4914443867508851  0.1590452076303639  0.20897741025340988  1.0000
