data_image0
_chemical_formula_structural       Zr4O8
_chemical_formula_sum              "Zr4 O8"
_cell_length_a       5.1539878367877705
_cell_length_b       5.22810872
_cell_length_c       5.329696159145639
_cell_angle_alpha    90.0
_cell_angle_beta     99.43692258379697
_cell_angle_gamma    90.0

_space_group_name_H-M_alt    "P 1"
_space_group_IT_number       1

loop_
  _space_group_symop_operation_xyz
  'x, y, z'

loop_
  _atom_site_type_symbol
  _atom_site_label
  _atom_site_symmetry_multiplicity
  _atom_site_fract_x
  _atom_site_fract_y
  _atom_site_fract_z
  _atom_site_occupancy
  Zr  Zr1       1.0  0.1777677716690067  0.39630511622489806  0.18888152270460168  1.0000
  Zr  Zr2       1.0  0.1657676759080644  0.5374449061595215  0.9125374747159407  1.0000
  Zr  Zr3       1.0  0.5809857170884634  0.5485661430277191  0.6414516824208274  1.0000
  Zr  Zr4       1.0  0.22727203387286332  0.5778011389530482  0.5266420249615535  1.0000
  O   O1        1.0  0.3850115895489665  0.42859964988772603  0.11366135495948981  1.0000
  O   O2        1.0  0.16417468567213356  0.08062444636047417  0.2995263711807672  1.0000
  O   O3        1.0  0.10424582544747363  0.6552571187870733  0.8635136582482295  1.0000
  O   O4        1.0  0.193620723866335  0.2747840478629979  0.5073951794863802  1.0000
  O   O5        1.0  0.3325195469436615  0.6184014695335023  0.5808639757887448  1.0000
  O   O6        1.0  0.7098299742861585  0.4026549137954447  0.26739115325980123  1.0000
  O   O7        1.0  0.4960103794348427  0.5361675738441143  0.7091798254168111  1.0000
  O   O8        1.0  0.5585187967251937  0.975640224809692  0.8739933846565897  1.0000
