data_image0
_chemical_formula_structural       Zr4O8
_chemical_formula_sum              "Zr4 O8"
_cell_length_a       5.1539878367877705
_cell_length_b       5.22810872
_cell_length_c       5.329696159145639
_cell_angle_alpha    90.0
_cell_angle_beta     99.43692258379697
_cell_angle_gamma    90.0

_space_group_name_H-M_alt    "P 1"
_space_group_IT_number       1

loop_
  _space_group_symop_operation_xyz
  'x, y, z'

loop_
  _atom_site_type_symbol
  _atom_site_label
  _atom_site_symmetry_multiplicity
  _atom_site_fract_x
  _atom_site_fract_y
  _atom_site_fract_z
  _atom_site_occupancy
  Zr  Zr1       1.0  0.3917248332963288  0.7199279035030521  0.6402050496945197  1.0000
  Zr  Zr2       1.0  0.43150506876503636  0.5825886003037972  0.3810095320798791  1.0000
  Zr  Zr3       1.0  0.23025695621943942  0.8618999716251423  0.03360643829484644  1.0000
  Zr  Zr4       1.0  0.48659605986375354  0.5579695082228451  0.8885336976500682  1.0000
  O   O1        1.0  0.2865165363518134  0.45589600196939273  0.9635215174077665  1.0000
  O   O2        1.0  0.5801122805254741  0.9892648131975115  0.680948171370555  1.0000
  O   O3        1.0  0.0008121378218959308  0.8983582749389853  0.13741561140770742  1.0000
  O   O4        1.0  0.9355221285409705  0.2057732843005482  0.06394260358909065  1.0000
  O   O5        1.0  0.42326919914162175  0.757318694423553  0.7009245595833526  1.0000
  O   O6        1.0  0.5253913556661676  0.3094628786030391  0.46589655696060106  1.0000
  O   O7        1.0  0.482229680618417  0.3913304387449248  0.4282386711423456  1.0000
  O   O8        1.0  0.27464603086893136  0.15488333135484567  0.9566114947977482  1.0000
