data_image0
_chemical_formula_structural       Zr4O8
_chemical_formula_sum              "Zr4 O8"
_cell_length_a       5.1539878367877705
_cell_length_b       5.22810872
_cell_length_c       5.329696159145639
_cell_angle_alpha    90.0
_cell_angle_beta     99.43692258379697
_cell_angle_gamma    90.0

_space_group_name_H-M_alt    "P 1"
_space_group_IT_number       1

loop_
  _space_group_symop_operation_xyz
  'x, y, z'

loop_
  _atom_site_type_symbol
  _atom_site_label
  _atom_site_symmetry_multiplicity
  _atom_site_fract_x
  _atom_site_fract_y
  _atom_site_fract_z
  _atom_site_occupancy
  Zr  Zr1       1.0  0.40135619007141443  0.6088000667236564  0.7029039143297648  1.0000
  Zr  Zr2       1.0  0.09814492003692621  0.3097303212437943  0.11955905280928292  1.0000
  Zr  Zr3       1.0  0.9226394955858321  0.6103310192667335  0.3231266602275832  1.0000
  Zr  Zr4       1.0  0.8175335380194224  0.01946603545014014  0.009623060808903627  1.0000
  O   O1        1.0  0.10413317055672522  0.0657326492623298  0.26443587146741265  1.0000
  O   O2        1.0  0.5817847976423032  0.6302626199717141  0.7081575713061135  1.0000
  O   O3        1.0  0.5534412220816316  0.1828685027074437  0.03264681956582649  1.0000
  O   O4        1.0  0.3360123972745477  0.9972730177676643  0.662853920996394  1.0000
  O   O5        1.0  0.5813017792097348  0.5070661991049086  0.09385738280177947  1.0000
  O   O6        1.0  0.6912210864440098  0.19779884292080396  0.6261150963777133  1.0000
  O   O7        1.0  0.31150821965826037  0.7508402139132606  0.9505063893524834  1.0000
  O   O8        1.0  0.45412606558908664  0.9571044622914258  0.43377987471258095  1.0000
