data_image0
_chemical_formula_structural       Zr4O8
_chemical_formula_sum              "Zr4 O8"
_cell_length_a       5.1539878367877705
_cell_length_b       5.22810872
_cell_length_c       5.329696159145639
_cell_angle_alpha    90.0
_cell_angle_beta     99.43692258379697
_cell_angle_gamma    90.0

_space_group_name_H-M_alt    "P 1"
_space_group_IT_number       1

loop_
  _space_group_symop_operation_xyz
  'x, y, z'

loop_
  _atom_site_type_symbol
  _atom_site_label
  _atom_site_symmetry_multiplicity
  _atom_site_fract_x
  _atom_site_fract_y
  _atom_site_fract_z
  _atom_site_occupancy
  Zr  Zr1       1.0  0.12140221449368394  0.9378422893826412  0.208849382216177  1.0000
  Zr  Zr2       1.0  0.9592300681127155  0.8957360203711566  0.3530373063013219  1.0000
  Zr  Zr3       1.0  0.8449586242923588  0.7502346403075304  0.7792066842488765  1.0000
  Zr  Zr4       1.0  0.2913919391457318  0.6754971549650648  0.4029795776854268  1.0000
  O   O1        1.0  0.7973487270905082  0.11241826011492861  0.121748304619274  1.0000
  O   O2        1.0  0.14871587549694365  0.3271372897213993  0.5580383257471252  1.0000
  O   O3        1.0  0.11286361753874985  0.899932618351599  0.37195551536053273  1.0000
  O   O4        1.0  0.8901938157498961  0.8593071820179397  0.6837948842972139  1.0000
  O   O5        1.0  0.051849305911780164  0.7564846232400839  0.6914068972933158  1.0000
  O   O6        1.0  0.18916789159981473  0.669639415403541  0.6634318711039251  1.0000
  O   O7        1.0  0.7694963552791935  0.23111190219077393  0.26712178426745226  1.0000
  O   O8        1.0  0.618641517646264  0.40154493247527157  0.948600892027855  1.0000
