data_image0
_chemical_formula_structural       Zr4O8
_chemical_formula_sum              "Zr4 O8"
_cell_length_a       5.1539878367877705
_cell_length_b       5.22810872
_cell_length_c       5.329696159145639
_cell_angle_alpha    90.0
_cell_angle_beta     99.43692258379697
_cell_angle_gamma    90.0

_space_group_name_H-M_alt    "P 1"
_space_group_IT_number       1

loop_
  _space_group_symop_operation_xyz
  'x, y, z'

loop_
  _atom_site_type_symbol
  _atom_site_label
  _atom_site_symmetry_multiplicity
  _atom_site_fract_x
  _atom_site_fract_y
  _atom_site_fract_z
  _atom_site_occupancy
  Zr  Zr1       1.0  0.40064831497507924  0.49093037017373575  0.5419487600125485  1.0000
  Zr  Zr2       1.0  0.6684678158538802  0.603597913026189  0.5529370142880037  1.0000
  Zr  Zr3       1.0  0.3625549609848202  0.24345897248169734  0.8578612633965509  1.0000
  Zr  Zr4       1.0  0.15026618057442676  0.04710121758574726  0.3631463128526917  1.0000
  O   O1        1.0  0.5466241055326524  0.33003029204249756  0.00892503948279355  1.0000
  O   O2        1.0  0.6668979796032772  0.9830823796279731  0.6698500889182242  1.0000
  O   O3        1.0  0.046366863101965805  0.5997580976630914  0.10663748998070055  1.0000
  O   O4        1.0  0.7100571676968102  0.638148655946857  0.6280562288236311  1.0000
  O   O5        1.0  0.640477418759648  0.3811458588546941  0.17284713598671608  1.0000
  O   O6        1.0  0.5584688125019142  0.8206473620405461  0.37498859500977666  1.0000
  O   O7        1.0  0.27539613025528453  0.7982979842004845  0.8055657056219658  1.0000
  O   O8        1.0  0.035829733977950085  0.2271324597577553  0.37102237043485253  1.0000
