data_image0
_chemical_formula_structural       Zr4O8
_chemical_formula_sum              "Zr4 O8"
_cell_length_a       5.1539878367877705
_cell_length_b       5.22810872
_cell_length_c       5.329696159145639
_cell_angle_alpha    90.0
_cell_angle_beta     99.43692258379697
_cell_angle_gamma    90.0

_space_group_name_H-M_alt    "P 1"
_space_group_IT_number       1

loop_
  _space_group_symop_operation_xyz
  'x, y, z'

loop_
  _atom_site_type_symbol
  _atom_site_label
  _atom_site_symmetry_multiplicity
  _atom_site_fract_x
  _atom_site_fract_y
  _atom_site_fract_z
  _atom_site_occupancy
  Zr  Zr1       1.0  0.9402134744872317  0.16107176184717176  0.420785294585702  1.0000
  Zr  Zr2       1.0  0.9150237175242424  0.2576204457509128  0.6031019654800511  1.0000
  Zr  Zr3       1.0  0.009145493725471354  0.7338061185858917  0.7791035876984722  1.0000
  Zr  Zr4       1.0  0.2957573392228479  0.1619432604096982  0.2579323765182764  1.0000
  O   O1        1.0  0.963310633834638  0.2198994940943102  0.2589736962396181  1.0000
  O   O2        1.0  0.49396761440306847  0.029013548540547163  0.23349523380194226  1.0000
  O   O3        1.0  0.8421111454457288  0.7661483432716238  0.8473590015922188  1.0000
  O   O4        1.0  0.6055282970202072  0.6704628761227731  0.016840484943164924  1.0000
  O   O5        1.0  0.8376223335810282  0.998527255375496  0.2281885924230309  1.0000
  O   O6        1.0  0.4580667484945877  0.13995398505335999  0.8269505249578906  1.0000
  O   O7        1.0  0.4786790667635188  0.41971289259844724  0.24348540087122217  1.0000
  O   O8        1.0  0.21085360949272142  0.9466577894675687  0.7032393934147905  1.0000
