data_image0
_chemical_formula_structural       Zr4O8
_chemical_formula_sum              "Zr4 O8"
_cell_length_a       5.1539878367877705
_cell_length_b       5.22810872
_cell_length_c       5.329696159145639
_cell_angle_alpha    90.0
_cell_angle_beta     99.43692258379697
_cell_angle_gamma    90.0

_space_group_name_H-M_alt    "P 1"
_space_group_IT_number       1

loop_
  _space_group_symop_operation_xyz
  'x, y, z'

loop_
  _atom_site_type_symbol
  _atom_site_label
  _atom_site_symmetry_multiplicity
  _atom_site_fract_x
  _atom_site_fract_y
  _atom_site_fract_z
  _atom_site_occupancy
  Zr  Zr1       1.0  0.6143167965370102  0.6031970677813057  0.66051731596683  1.0000
  Zr  Zr2       1.0  0.9695051633574785  0.674578951431311  0.8251049647760116  1.0000
  Zr  Zr3       1.0  0.8888405221578068  0.3375733730414463  0.4487082340549433  1.0000
  Zr  Zr4       1.0  0.73170474695999  0.5297096648845256  0.6147728328274495  1.0000
  O   O1        1.0  0.5618732766513759  0.5979092774713699  0.6304044440775343  1.0000
  O   O2        1.0  0.5197886823500464  0.8961724541378544  0.680590641938323  1.0000
  O   O3        1.0  0.7898908577264656  0.15898076323139243  0.1873064067695296  1.0000
  O   O4        1.0  0.6729919153969846  0.20282115205928275  0.7377874083822413  1.0000
  O   O5        1.0  0.9078071179389182  0.5869638679939264  0.7099371317231871  1.0000
  O   O6        1.0  0.9306895550877883  0.708095670380203  0.3137464148060758  1.0000
  O   O7        1.0  0.5776687007915235  0.6543371925362749  0.10662115401441952  1.0000
  O   O8        1.0  0.81536433773827  0.8242223906420527  0.11383398756524699  1.0000
