data_image0
_chemical_formula_structural       Zr4O8
_chemical_formula_sum              "Zr4 O8"
_cell_length_a       5.1539878367877705
_cell_length_b       5.22810872
_cell_length_c       5.329696159145639
_cell_angle_alpha    90.0
_cell_angle_beta     99.43692258379697
_cell_angle_gamma    90.0

_space_group_name_H-M_alt    "P 1"
_space_group_IT_number       1

loop_
  _space_group_symop_operation_xyz
  'x, y, z'

loop_
  _atom_site_type_symbol
  _atom_site_label
  _atom_site_symmetry_multiplicity
  _atom_site_fract_x
  _atom_site_fract_y
  _atom_site_fract_z
  _atom_site_occupancy
  Zr  Zr1       1.0  0.42379201206416806  0.6611202560756517  0.8968514135075569  1.0000
  Zr  Zr2       1.0  0.7364663693626508  0.4548075352293779  0.7238136421933792  1.0000
  Zr  Zr3       1.0  0.003624313459491546  0.9045844016071385  0.7155664241977666  1.0000
  Zr  Zr4       1.0  0.246942913470662  0.9489564761801539  0.047543173807079064  1.0000
  O   O1        1.0  0.21454713379509371  0.4349367780418234  0.2067137959523535  1.0000
  O   O2        1.0  0.21079179252375368  0.6062786059547491  0.47000523023494445  1.0000
  O   O3        1.0  0.17731621712062573  0.47034482485093854  0.6648864973018505  1.0000
  O   O4        1.0  0.18786962275726893  0.1579450007349731  0.11196163650602386  1.0000
  O   O5        1.0  0.03413367253957955  0.4335439882923735  0.8255584197543548  1.0000
  O   O6        1.0  0.04706907410459493  0.900252041254717  0.6526275240547275  1.0000
  O   O7        1.0  0.4917756967520379  0.6740082266168379  0.2947102554628742  1.0000
  O   O8        1.0  0.4111248264913421  0.7771462871652943  0.4951337477153199  1.0000
