data_image0
_chemical_formula_structural       Zr4O8
_chemical_formula_sum              "Zr4 O8"
_cell_length_a       5.1539878367877705
_cell_length_b       5.22810872
_cell_length_c       5.329696159145639
_cell_angle_alpha    90.0
_cell_angle_beta     99.43692258379697
_cell_angle_gamma    90.0

_space_group_name_H-M_alt    "P 1"
_space_group_IT_number       1

loop_
  _space_group_symop_operation_xyz
  'x, y, z'

loop_
  _atom_site_type_symbol
  _atom_site_label
  _atom_site_symmetry_multiplicity
  _atom_site_fract_x
  _atom_site_fract_y
  _atom_site_fract_z
  _atom_site_occupancy
  Zr  Zr1       1.0  0.4363001409833238  0.034627731614554236  0.5651980813306459  1.0000
  Zr  Zr2       1.0  0.9291542983633008  0.20187172680121956  0.18427022529004944  1.0000
  Zr  Zr3       1.0  0.3279402402161562  0.9235979656830473  0.9733133563493439  1.0000
  Zr  Zr4       1.0  0.6595791449127963  0.35295380571283186  0.28225037106247797  1.0000
  O   O1        1.0  0.1457405100947078  0.8722933280097394  0.3760054157329318  1.0000
  O   O2        1.0  0.2746424152585121  0.8251198239210709  0.7885473187924248  1.0000
  O   O3        1.0  0.7551705019754493  0.7793957206748736  0.24045727724758237  1.0000
  O   O4        1.0  0.12885754006116912  0.7722688019365442  0.8589727938907501  1.0000
  O   O5        1.0  0.4460780284604766  0.04382763978617987  0.10815046128384154  1.0000
  O   O6        1.0  0.30332566359325597  0.8941627700533701  0.22987991654110185  1.0000
  O   O7        1.0  0.42469113742890485  0.5303589081980276  0.2542384875742698  1.0000
  O   O8        1.0  0.0022940256053441965  0.3729375973711689  0.6684236775402042  1.0000
