data_image0
_chemical_formula_structural       Zr4O8
_chemical_formula_sum              "Zr4 O8"
_cell_length_a       5.1539878367877705
_cell_length_b       5.22810872
_cell_length_c       5.329696159145639
_cell_angle_alpha    90.0
_cell_angle_beta     99.43692258379697
_cell_angle_gamma    90.0

_space_group_name_H-M_alt    "P 1"
_space_group_IT_number       1

loop_
  _space_group_symop_operation_xyz
  'x, y, z'

loop_
  _atom_site_type_symbol
  _atom_site_label
  _atom_site_symmetry_multiplicity
  _atom_site_fract_x
  _atom_site_fract_y
  _atom_site_fract_z
  _atom_site_occupancy
  Zr  Zr1       1.0  0.8380224583904541  0.8672717433785451  0.04200862706288433  1.0000
  Zr  Zr2       1.0  0.15678531379867344  0.9403168259170869  0.86063690493026  1.0000
  Zr  Zr3       1.0  0.1740307802850758  0.25369881092538227  0.7667488364663058  1.0000
  Zr  Zr4       1.0  0.04523676702484636  0.956399925094864  0.09115985658145886  1.0000
  O   O1        1.0  0.9055852840860155  0.5081170802836397  0.5934163423895384  1.0000
  O   O2        1.0  0.8398384976121009  0.08757994819362303  0.6902996886138979  1.0000
  O   O3        1.0  0.9309559532779867  0.726712267874678  0.4211795464393404  1.0000
  O   O4        1.0  0.8480845894132685  0.5269621595910228  0.7216554647562097  1.0000
  O   O5        1.0  0.36639469604285413  0.9117001463104302  0.9888658500473042  1.0000
  O   O6        1.0  0.5127675682493162  0.28086417055455826  0.8051484344908069  1.0000
  O   O7        1.0  0.7762847642161645  0.6974735312251212  0.043858986246036125  1.0000
  O   O8        1.0  0.6556945205306022  0.1750418993388223  0.1541259366099208  1.0000
