data_image0
_chemical_formula_structural       Zr4O8
_chemical_formula_sum              "Zr4 O8"
_cell_length_a       5.1539878367877705
_cell_length_b       5.22810872
_cell_length_c       5.329696159145639
_cell_angle_alpha    90.0
_cell_angle_beta     99.43692258379697
_cell_angle_gamma    90.0

_space_group_name_H-M_alt    "P 1"
_space_group_IT_number       1

loop_
  _space_group_symop_operation_xyz
  'x, y, z'

loop_
  _atom_site_type_symbol
  _atom_site_label
  _atom_site_symmetry_multiplicity
  _atom_site_fract_x
  _atom_site_fract_y
  _atom_site_fract_z
  _atom_site_occupancy
  Zr  Zr1       1.0  0.3494559502918744  0.9845050783238953  0.6511416062529012  1.0000
  Zr  Zr2       1.0  0.32327148779071635  0.8678122429421098  0.6207513754881369  1.0000
  Zr  Zr3       1.0  0.0057842503602199  0.48448563116475374  0.3960069540132607  1.0000
  Zr  Zr4       1.0  0.9276189027309267  0.3403333783240261  0.06295470957564842  1.0000
  O   O1        1.0  0.057285529149019965  0.6386242965588895  0.921050370849688  1.0000
  O   O2        1.0  0.36305894048098963  0.4384768906333809  0.15170586170150369  1.0000
  O   O3        1.0  0.5182907449720613  0.6752016648159298  0.7616094571512448  1.0000
  O   O4        1.0  0.6255885954208291  0.6198338269793329  0.742639144979421  1.0000
  O   O5        1.0  0.2688848748397241  0.44416268681457804  0.9913235389132158  1.0000
  O   O6        1.0  0.6873178029059268  0.6721210081628803  0.08125729837089146  1.0000
  O   O7        1.0  0.9157446828839961  0.18256375701294392  0.588163037361717  1.0000
  O   O8        1.0  0.24758818219075351  0.7160012520934274  0.7661897522321276  1.0000
