data_image0
_chemical_formula_structural       Zr4O8
_chemical_formula_sum              "Zr4 O8"
_cell_length_a       5.1539878367877705
_cell_length_b       5.22810872
_cell_length_c       5.329696159145639
_cell_angle_alpha    90.0
_cell_angle_beta     99.43692258379697
_cell_angle_gamma    90.0

_space_group_name_H-M_alt    "P 1"
_space_group_IT_number       1

loop_
  _space_group_symop_operation_xyz
  'x, y, z'

loop_
  _atom_site_type_symbol
  _atom_site_label
  _atom_site_symmetry_multiplicity
  _atom_site_fract_x
  _atom_site_fract_y
  _atom_site_fract_z
  _atom_site_occupancy
  Zr  Zr1       1.0  0.7363129993307178  0.6170343967597223  0.19398238576201976  1.0000
  Zr  Zr2       1.0  0.772491087823024  0.47368004117864526  0.8452919482325543  1.0000
  Zr  Zr3       1.0  0.6144320693231844  0.927412405259437  0.42365698709318167  1.0000
  Zr  Zr4       1.0  0.4697051324164221  0.6177279463101515  0.5055555844986248  1.0000
  O   O1        1.0  0.7037344304541904  0.6512546472453185  0.03929901985473805  1.0000
  O   O2        1.0  0.26931070282744685  0.40582006123755576  0.30818621297932935  1.0000
  O   O3        1.0  0.8946835174481045  0.1326365810975929  0.41044743367289627  1.0000
  O   O4        1.0  0.33089165487409566  0.5772660354820545  0.11751074696903885  1.0000
  O   O5        1.0  0.6320320551457641  0.24789204690038602  0.6278039769882193  1.0000
  O   O6        1.0  0.9455332697009773  0.12951825307702336  0.897191253837601  1.0000
  O   O7        1.0  0.23831823150651132  0.9617093148926976  0.6843750538160638  1.0000
  O   O8        1.0  0.9804019493816867  0.573461541913872  0.0921659526309071  1.0000
