data_image0
_chemical_formula_structural       Zr4O8
_chemical_formula_sum              "Zr4 O8"
_cell_length_a       5.1539878367877705
_cell_length_b       5.22810872
_cell_length_c       5.329696159145639
_cell_angle_alpha    90.0
_cell_angle_beta     99.43692258379697
_cell_angle_gamma    90.0

_space_group_name_H-M_alt    "P 1"
_space_group_IT_number       1

loop_
  _space_group_symop_operation_xyz
  'x, y, z'

loop_
  _atom_site_type_symbol
  _atom_site_label
  _atom_site_symmetry_multiplicity
  _atom_site_fract_x
  _atom_site_fract_y
  _atom_site_fract_z
  _atom_site_occupancy
  Zr  Zr1       1.0  0.5951675222945605  0.639756490743185  0.6611452002059011  1.0000
  Zr  Zr2       1.0  0.44713380729499796  0.1668064264464828  0.36514554883780104  1.0000
  Zr  Zr3       1.0  0.06503675367202888  0.787494982241487  0.8403772191486514  1.0000
  Zr  Zr4       1.0  0.5863680653480443  0.0406663436161967  0.49658150461388395  1.0000
  O   O1        1.0  0.06974309931781875  0.6049604661199233  0.27646436211605874  1.0000
  O   O2        1.0  0.34834614147486853  0.4909696042313172  0.8128845030212428  1.0000
  O   O3        1.0  0.8823899661952375  0.47089525066575  0.508190706789776  1.0000
  O   O4        1.0  0.5967490101541841  0.22258422194880545  0.3724752604579198  1.0000
  O   O5        1.0  0.5125749364509424  0.19552560094073534  0.2302798929082499  1.0000
  O   O6        1.0  0.7741440686397496  0.30531361876531093  0.7466719124346071  1.0000
  O   O7        1.0  0.32426854868221255  0.8596902341487542  0.6639185601074473  1.0000
  O   O8        1.0  0.648044481679058  0.6392932758831673  0.4696482806639519  1.0000
