data_image0
_chemical_formula_structural       Zr4O8
_chemical_formula_sum              "Zr4 O8"
_cell_length_a       5.1539878367877705
_cell_length_b       5.22810872
_cell_length_c       5.329696159145639
_cell_angle_alpha    90.0
_cell_angle_beta     99.43692258379697
_cell_angle_gamma    90.0

_space_group_name_H-M_alt    "P 1"
_space_group_IT_number       1

loop_
  _space_group_symop_operation_xyz
  'x, y, z'

loop_
  _atom_site_type_symbol
  _atom_site_label
  _atom_site_symmetry_multiplicity
  _atom_site_fract_x
  _atom_site_fract_y
  _atom_site_fract_z
  _atom_site_occupancy
  Zr  Zr1       1.0  0.4248675676338767  0.9677403060102776  0.7809001927102133  1.0000
  Zr  Zr2       1.0  0.8309612920444511  0.33354209414392955  0.8356819449008688  1.0000
  Zr  Zr3       1.0  0.7882285458971996  0.49451397910238204  0.44826335913327053  1.0000
  Zr  Zr4       1.0  0.8793204655273895  0.8801988202803059  0.9462906756990099  1.0000
  O   O1        1.0  0.14812789174337126  0.7645818075918811  0.180588843811206  1.0000
  O   O2        1.0  0.5048047809831075  0.22433300144764257  0.7492077589300736  1.0000
  O   O3        1.0  0.8677724432564382  0.7059419455992997  0.4921482418508525  1.0000
  O   O4        1.0  0.1549740871056592  0.6279998801002549  0.5093622071203043  1.0000
  O   O5        1.0  0.29227266653250616  0.7403561845104942  0.2683315374445918  1.0000
  O   O6        1.0  0.3714371524062656  0.9366023132593577  0.836409289636622  1.0000
  O   O7        1.0  0.8097990863704991  0.5980677555270733  0.3686983400145323  1.0000
  O   O8        1.0  0.5553264926808605  0.9614163496342556  0.5283077609628197  1.0000
