data_image0
_chemical_formula_structural       Zr4O8
_chemical_formula_sum              "Zr4 O8"
_cell_length_a       5.1539878367877705
_cell_length_b       5.22810872
_cell_length_c       5.329696159145639
_cell_angle_alpha    90.0
_cell_angle_beta     99.43692258379697
_cell_angle_gamma    90.0

_space_group_name_H-M_alt    "P 1"
_space_group_IT_number       1

loop_
  _space_group_symop_operation_xyz
  'x, y, z'

loop_
  _atom_site_type_symbol
  _atom_site_label
  _atom_site_symmetry_multiplicity
  _atom_site_fract_x
  _atom_site_fract_y
  _atom_site_fract_z
  _atom_site_occupancy
  Zr  Zr1       1.0  0.3345595431435928  0.8835862970757082  0.9615375835591247  1.0000
  Zr  Zr2       1.0  0.3704179197156563  0.6018488593965934  0.2550405551578402  1.0000
  Zr  Zr3       1.0  0.19424100698568525  0.9685235333678346  0.6273696220114822  1.0000
  Zr  Zr4       1.0  0.12531838057518474  0.9045069301624125  0.2306375567646235  1.0000
  O   O1        1.0  0.8090077898389669  0.04764530060132177  0.01881572522903241  1.0000
  O   O2        1.0  0.896451379223282  0.16304780031275357  0.8517463546681276  1.0000
  O   O3        1.0  0.4388845518555655  0.5069215642922345  0.5433192560678863  1.0000
  O   O4        1.0  0.19958131934201973  0.056275608484003925  0.20986561715307417  1.0000
  O   O5        1.0  0.8802281837862438  0.9336759243834294  0.2766347511878622  1.0000
  O   O6        1.0  0.5916549838652065  0.4702923337035294  0.7437498030967715  1.0000
  O   O7        1.0  0.32111113416723797  0.5535211053410976  0.46553238061137137  1.0000
  O   O8        1.0  0.9220191108589753  0.2853525650349056  0.6849338216674479  1.0000
