data_image0
_chemical_formula_structural       Zr4O8
_chemical_formula_sum              "Zr4 O8"
_cell_length_a       5.1539878367877705
_cell_length_b       5.22810872
_cell_length_c       5.329696159145639
_cell_angle_alpha    90.0
_cell_angle_beta     99.43692258379697
_cell_angle_gamma    90.0

_space_group_name_H-M_alt    "P 1"
_space_group_IT_number       1

loop_
  _space_group_symop_operation_xyz
  'x, y, z'

loop_
  _atom_site_type_symbol
  _atom_site_label
  _atom_site_symmetry_multiplicity
  _atom_site_fract_x
  _atom_site_fract_y
  _atom_site_fract_z
  _atom_site_occupancy
  Zr  Zr1       1.0  0.842358828924267  0.39331541505203127  0.7031156479419209  1.0000
  Zr  Zr2       1.0  0.187866363295349  0.5696086183509408  0.06851696620004954  1.0000
  Zr  Zr3       1.0  0.7972974069618406  0.3601498785268564  0.8201336663312322  1.0000
  Zr  Zr4       1.0  0.2635792242727202  0.07319319892864051  0.7638520874147368  1.0000
  O   O1        1.0  0.32241657011966396  0.5658536978739122  0.36674364678286153  1.0000
  O   O2        1.0  0.6109872740375741  0.0845413899949321  0.21821977346808552  1.0000
  O   O3        1.0  0.4236975743962188  0.795373874350112  0.7688985443318543  1.0000
  O   O4        1.0  0.45549794419957124  0.7894034827256053  0.9003653276913619  1.0000
  O   O5        1.0  0.7656456809793255  0.7361618138609778  0.7083051238520923  1.0000
  O   O6        1.0  0.010269741833944579  0.022958622688271646  0.367669166632016  1.0000
  O   O7        1.0  0.5651003734586482  0.2690811773675357  0.026261467749293388  1.0000
  O   O8        1.0  0.7288841191916573  0.8236385289112782  0.4282540638838803  1.0000
