data_image0
_chemical_formula_structural       Zr4O8
_chemical_formula_sum              "Zr4 O8"
_cell_length_a       5.1539878367877705
_cell_length_b       5.22810872
_cell_length_c       5.329696159145639
_cell_angle_alpha    90.0
_cell_angle_beta     99.43692258379697
_cell_angle_gamma    90.0

_space_group_name_H-M_alt    "P 1"
_space_group_IT_number       1

loop_
  _space_group_symop_operation_xyz
  'x, y, z'

loop_
  _atom_site_type_symbol
  _atom_site_label
  _atom_site_symmetry_multiplicity
  _atom_site_fract_x
  _atom_site_fract_y
  _atom_site_fract_z
  _atom_site_occupancy
  Zr  Zr1       1.0  0.5996331472607488  0.6092726031517746  0.2660383384605556  1.0000
  Zr  Zr2       1.0  0.7610498203393128  0.7577788334526971  0.07543745049068473  1.0000
  Zr  Zr3       1.0  0.32950781985234734  0.9806310902424058  0.722973331377645  1.0000
  Zr  Zr4       1.0  0.885636581251703  0.6840115369682005  0.4244255417224707  1.0000
  O   O1        1.0  0.6543289341610006  0.37143583462668417  0.9023838884071118  1.0000
  O   O2        1.0  0.8406166137893791  0.40460257881515815  0.727897544659998  1.0000
  O   O3        1.0  0.19192037668028794  0.8296480448177022  0.9507398376928151  1.0000
  O   O4        1.0  0.6721892116517267  0.9849996415694457  0.7605851809289375  1.0000
  O   O5        1.0  0.4876910322800079  0.9630063213969073  0.7565244481173963  1.0000
  O   O6        1.0  0.9302623980365432  0.774200034944208  0.7512111879719967  1.0000
  O   O7        1.0  0.1513343879827076  0.6223615911766807  0.45706701336146693  1.0000
  O   O8        1.0  0.32074952264294865  0.24840363777930818  0.18359017373250275  1.0000
