data_image0
_chemical_formula_structural       Zr4O8
_chemical_formula_sum              "Zr4 O8"
_cell_length_a       5.1539878367877705
_cell_length_b       5.22810872
_cell_length_c       5.329696159145639
_cell_angle_alpha    90.0
_cell_angle_beta     99.43692258379697
_cell_angle_gamma    90.0

_space_group_name_H-M_alt    "P 1"
_space_group_IT_number       1

loop_
  _space_group_symop_operation_xyz
  'x, y, z'

loop_
  _atom_site_type_symbol
  _atom_site_label
  _atom_site_symmetry_multiplicity
  _atom_site_fract_x
  _atom_site_fract_y
  _atom_site_fract_z
  _atom_site_occupancy
  Zr  Zr1       1.0  0.8602064634807176  0.8966758298116622  0.6427953915024021  1.0000
  Zr  Zr2       1.0  0.9215096266052334  0.47260081163976153  0.038247446410592856  1.0000
  Zr  Zr3       1.0  0.27599695375808997  0.08060666611166134  0.5085635552173073  1.0000
  Zr  Zr4       1.0  0.9198788932227275  0.4949552518515272  0.8826406340490145  1.0000
  O   O1        1.0  0.2683063556388383  0.03889281007402068  0.4361651755670053  1.0000
  O   O2        1.0  0.10462482307495613  0.7480219117014251  0.20805077086246548  1.0000
  O   O3        1.0  0.6671427812301545  0.9413871832368201  0.003337088056391657  1.0000
  O   O4        1.0  0.9757873962011523  0.7365756449654093  0.6995807036360446  1.0000
  O   O5        1.0  0.4555105778877646  0.2929465658472665  0.6640149043571297  1.0000
  O   O6        1.0  0.4345077171895757  0.7517574324450447  0.8911080822529618  1.0000
  O   O7        1.0  0.38557366578897545  0.7592772052513208  0.7235591124533585  1.0000
  O   O8        1.0  0.4025534728955569  0.9195731192202992  0.35890235039970086  1.0000
