data_image0
_chemical_formula_structural       Zr4O8
_chemical_formula_sum              "Zr4 O8"
_cell_length_a       5.1539878367877705
_cell_length_b       5.22810872
_cell_length_c       5.329696159145639
_cell_angle_alpha    90.0
_cell_angle_beta     99.43692258379697
_cell_angle_gamma    90.0

_space_group_name_H-M_alt    "P 1"
_space_group_IT_number       1

loop_
  _space_group_symop_operation_xyz
  'x, y, z'

loop_
  _atom_site_type_symbol
  _atom_site_label
  _atom_site_symmetry_multiplicity
  _atom_site_fract_x
  _atom_site_fract_y
  _atom_site_fract_z
  _atom_site_occupancy
  Zr  Zr1       1.0  0.14510753409777055  0.563760061550374  0.7496883149244589  1.0000
  Zr  Zr2       1.0  0.5441146947288757  0.9830321150733603  0.25497033860401164  1.0000
  Zr  Zr3       1.0  0.40613235696498506  0.1439342320287622  0.029282567891696587  1.0000
  Zr  Zr4       1.0  0.08968052844735652  0.2332483326257142  0.17099183586863198  1.0000
  O   O1        1.0  0.4997271382937285  0.8699594495794916  0.6078621707821519  1.0000
  O   O2        1.0  0.6839488360897867  0.6285579303623621  0.7687636491856402  1.0000
  O   O3        1.0  0.6425732743401191  0.5688918030830479  0.26920794676818716  1.0000
  O   O4        1.0  0.9129386305053551  0.1595736395299827  0.201488048898824  1.0000
  O   O5        1.0  0.7714796451879096  0.6567461752967176  0.5711410048917369  1.0000
  O   O6        1.0  0.43373153163508604  0.4065649636718902  0.9238001648386618  1.0000
  O   O7        1.0  0.947084826028675  0.6432107700620602  0.05572704247032867  1.0000
  O   O8        1.0  0.5823403779889489  0.8381576808287505  0.9080722945787372  1.0000
