data_image0
_chemical_formula_structural       Zr4O8
_chemical_formula_sum              "Zr4 O8"
_cell_length_a       5.1539878367877705
_cell_length_b       5.22810872
_cell_length_c       5.329696159145639
_cell_angle_alpha    90.0
_cell_angle_beta     99.43692258379697
_cell_angle_gamma    90.0

_space_group_name_H-M_alt    "P 1"
_space_group_IT_number       1

loop_
  _space_group_symop_operation_xyz
  'x, y, z'

loop_
  _atom_site_type_symbol
  _atom_site_label
  _atom_site_symmetry_multiplicity
  _atom_site_fract_x
  _atom_site_fract_y
  _atom_site_fract_z
  _atom_site_occupancy
  Zr  Zr1       1.0  0.12182172965733962  0.07947671390470745  0.5438369063334143  1.0000
  Zr  Zr2       1.0  0.930575564230006  0.907360911470235  0.5119418096256521  1.0000
  Zr  Zr3       1.0  0.6913730732932768  0.1611296513182765  0.8216401858750899  1.0000
  Zr  Zr4       1.0  0.9631039040140355  0.3407351917579291  0.6439054481488373  1.0000
  O   O1        1.0  0.6652004138596936  0.15697238612377973  0.14733512721024056  1.0000
  O   O2        1.0  0.7572684876579103  0.42331624343751884  0.27417751542334656  1.0000
  O   O3        1.0  0.02234677895516768  0.6562200007983421  0.6443711521578734  1.0000
  O   O4        1.0  0.07717154549145988  0.9865415234816446  0.17564463291707177  1.0000
  O   O5        1.0  0.8889212178880488  0.22920763358729346  0.22743997686346518  1.0000
  O   O6        1.0  0.505334193561076  0.45237377176688653  0.2862154310163507  1.0000
  O   O7        1.0  0.31750231005531404  0.28236908769459745  0.9692189460122833  1.0000
  O   O8        1.0  0.5695451608276159  0.4052900915744253  0.47056248074523666  1.0000
