data_image0
_chemical_formula_structural       Zr4O8
_chemical_formula_sum              "Zr4 O8"
_cell_length_a       5.1539878367877705
_cell_length_b       5.22810872
_cell_length_c       5.329696159145639
_cell_angle_alpha    90.0
_cell_angle_beta     99.43692258379697
_cell_angle_gamma    90.0

_space_group_name_H-M_alt    "P 1"
_space_group_IT_number       1

loop_
  _space_group_symop_operation_xyz
  'x, y, z'

loop_
  _atom_site_type_symbol
  _atom_site_label
  _atom_site_symmetry_multiplicity
  _atom_site_fract_x
  _atom_site_fract_y
  _atom_site_fract_z
  _atom_site_occupancy
  Zr  Zr1       1.0  0.74003033357776  0.6340883296454116  0.01395353681264666  1.0000
  Zr  Zr2       1.0  0.7442171580140613  0.7129572052367461  0.7745975037702113  1.0000
  Zr  Zr3       1.0  0.03996692772695561  0.8416228692422862  0.754818443766341  1.0000
  Zr  Zr4       1.0  0.7345573456885579  0.37029916565770726  0.2558334420876598  1.0000
  O   O1        1.0  0.6306273124790867  0.44056785404496424  0.559387783610763  1.0000
  O   O2        1.0  0.784031699507878  0.823265052111779  0.1925464006258366  1.0000
  O   O3        1.0  0.684627329832054  0.8044258486525528  0.4400866674538655  1.0000
  O   O4        1.0  0.12102260245968921  0.015655959904535166  0.11481064782118722  1.0000
  O   O5        1.0  0.7193777728214279  0.8807184102452581  0.42858953455930404  1.0000
  O   O6        1.0  0.9045287692668609  0.9375796318313192  0.039027638077058224  1.0000
  O   O7        1.0  0.06945991252227302  0.9838790902820751  0.8962061811702142  1.0000
  O   O8        1.0  0.37078820321562134  0.30623972571520536  0.663997267614171  1.0000
