data_image0
_chemical_formula_structural       Zr4O8
_chemical_formula_sum              "Zr4 O8"
_cell_length_a       5.1539878367877705
_cell_length_b       5.22810872
_cell_length_c       5.329696159145639
_cell_angle_alpha    90.0
_cell_angle_beta     99.43692258379697
_cell_angle_gamma    90.0

_space_group_name_H-M_alt    "P 1"
_space_group_IT_number       1

loop_
  _space_group_symop_operation_xyz
  'x, y, z'

loop_
  _atom_site_type_symbol
  _atom_site_label
  _atom_site_symmetry_multiplicity
  _atom_site_fract_x
  _atom_site_fract_y
  _atom_site_fract_z
  _atom_site_occupancy
  Zr  Zr1       1.0  0.5136490987660327  0.8118467221975827  0.46233939517817024  1.0000
  Zr  Zr2       1.0  0.1689714609902495  0.280984439815656  0.9804147837182077  1.0000
  Zr  Zr3       1.0  0.4770554922547312  0.3439788166157527  0.9920685468994996  1.0000
  Zr  Zr4       1.0  0.013292870095185094  0.07790597322051518  0.4224063287453941  1.0000
  O   O1        1.0  0.33263039237841774  0.6257460706240905  0.28985014222825356  1.0000
  O   O2        1.0  0.3266984094889809  0.5596628974018145  0.8096416310902681  1.0000
  O   O3        1.0  0.06973848779816905  0.04554152163206027  0.18712900882950478  1.0000
  O   O4        1.0  0.43964383358213155  0.43653301082298057  0.9155090161793353  1.0000
  O   O5        1.0  0.3805949049844912  0.6001110143511852  0.6603687712509139  1.0000
  O   O6        1.0  0.5461347513417536  0.44264342463681317  0.22725998560521354  1.0000
  O   O7        1.0  0.34267112206557915  0.5087146564711755  0.5792360694372007  1.0000
  O   O8        1.0  0.9539582998458416  0.058251316010760945  0.10569383469562155  1.0000
