data_image0
_chemical_formula_structural       Zr4O8
_chemical_formula_sum              "Zr4 O8"
_cell_length_a       5.1539878367877705
_cell_length_b       5.22810872
_cell_length_c       5.329696159145639
_cell_angle_alpha    90.0
_cell_angle_beta     99.43692258379697
_cell_angle_gamma    90.0

_space_group_name_H-M_alt    "P 1"
_space_group_IT_number       1

loop_
  _space_group_symop_operation_xyz
  'x, y, z'

loop_
  _atom_site_type_symbol
  _atom_site_label
  _atom_site_symmetry_multiplicity
  _atom_site_fract_x
  _atom_site_fract_y
  _atom_site_fract_z
  _atom_site_occupancy
  Zr  Zr1       1.0  0.9210587856214971  0.2136893428978297  0.014851018404105076  1.0000
  Zr  Zr2       1.0  0.04797665789676131  0.7707789014191384  0.5539429823406556  1.0000
  Zr  Zr3       1.0  0.0787723817580801  0.6581383562626986  0.637101559995898  1.0000
  Zr  Zr4       1.0  0.8958406549725284  0.014051427661541993  0.8509863076573883  1.0000
  O   O1        1.0  0.9829419883958082  0.2293283524740879  0.040768258225206466  1.0000
  O   O2        1.0  0.8603296946936823  0.14694226810999567  0.02706981923752494  1.0000
  O   O3        1.0  0.028093568969012495  0.6712689500402504  0.6661911318609484  1.0000
  O   O4        1.0  0.8209212474870764  0.42619202413944735  0.44594905894884107  1.0000
  O   O5        1.0  0.571881750742671  0.47483218362548385  0.505241060957097  1.0000
  O   O6        1.0  0.2704408341033968  0.2400215860592283  0.7211338402162237  1.0000
  O   O7        1.0  0.5512679540235936  0.7033968742988783  0.6478678703668805  1.0000
  O   O8        1.0  0.5433812094144201  0.1757189847100804  0.7132206040301412  1.0000
