data_image0
_chemical_formula_structural       Zr4O8
_chemical_formula_sum              "Zr4 O8"
_cell_length_a       5.1539878367877705
_cell_length_b       5.22810872
_cell_length_c       5.329696159145639
_cell_angle_alpha    90.0
_cell_angle_beta     99.43692258379697
_cell_angle_gamma    90.0

_space_group_name_H-M_alt    "P 1"
_space_group_IT_number       1

loop_
  _space_group_symop_operation_xyz
  'x, y, z'

loop_
  _atom_site_type_symbol
  _atom_site_label
  _atom_site_symmetry_multiplicity
  _atom_site_fract_x
  _atom_site_fract_y
  _atom_site_fract_z
  _atom_site_occupancy
  Zr  Zr1       1.0  0.36825480588233894  0.24805395373409356  0.7315197754439957  1.0000
  Zr  Zr2       1.0  0.4622330070428453  0.4087821174757096  0.09873600549148587  1.0000
  Zr  Zr3       1.0  0.15090399043068436  0.7109124261279884  0.849509692124041  1.0000
  Zr  Zr4       1.0  0.5820718888994434  0.16293985923627918  0.004718014264224468  1.0000
  O   O1        1.0  0.8300491175608347  0.04743765266196576  0.7162485652157962  1.0000
  O   O2        1.0  0.1038784669250643  0.2648665626737703  0.894694889754466  1.0000
  O   O3        1.0  0.6675144391820744  0.4788549809127609  0.46891623967600937  1.0000
  O   O4        1.0  0.08160888203509487  0.5001520694815085  0.2680797759365845  1.0000
  O   O5        1.0  0.8921091350969874  0.17072086594874492  0.768865865433245  1.0000
  O   O6        1.0  0.8662512266154909  0.7286303742084819  0.9482056136022674  1.0000
  O   O7        1.0  0.7378626874117824  0.932940408210829  0.8354888682260189  1.0000
  O   O8        1.0  0.147624334742948  0.44985992249180584  0.5624276520582918  1.0000
