data_image0
_chemical_formula_structural       Zr4O8
_chemical_formula_sum              "Zr4 O8"
_cell_length_a       5.1539878367877705
_cell_length_b       5.22810872
_cell_length_c       5.329696159145639
_cell_angle_alpha    90.0
_cell_angle_beta     99.43692258379697
_cell_angle_gamma    90.0

_space_group_name_H-M_alt    "P 1"
_space_group_IT_number       1

loop_
  _space_group_symop_operation_xyz
  'x, y, z'

loop_
  _atom_site_type_symbol
  _atom_site_label
  _atom_site_symmetry_multiplicity
  _atom_site_fract_x
  _atom_site_fract_y
  _atom_site_fract_z
  _atom_site_occupancy
  Zr  Zr1       1.0  0.15346013012864823  0.7454119205797785  0.7587711219361974  1.0000
  Zr  Zr2       1.0  0.6851611354142566  0.5724108985149385  0.42892673649765634  1.0000
  Zr  Zr3       1.0  0.2986432242840342  0.3820971040474519  0.5022055898702629  1.0000
  Zr  Zr4       1.0  0.7884991489729032  0.737575696324396  0.7699704945651602  1.0000
  O   O1        1.0  0.1716908594236699  0.7022124227091595  0.7591606301278482  1.0000
  O   O2        1.0  0.09884095912104707  0.8640847638588287  0.7159121683924119  1.0000
  O   O3        1.0  0.9905378694189526  0.5708978568969751  0.2154221471687343  1.0000
  O   O4        1.0  0.4339098339155356  0.9868526983872026  0.5128427719147748  1.0000
  O   O5        1.0  0.36760264596595427  0.13792288518509288  0.5521816111897913  1.0000
  O   O6        1.0  0.8412407711149823  0.9724021871797124  0.6327155170279877  1.0000
  O   O7        1.0  0.32860095886537266  0.5303256963023495  0.29889744199858015  1.0000
  O   O8        1.0  0.5048769535734863  0.9702255830607598  0.49714794479150637  1.0000
