data_image0
_chemical_formula_structural       Zr4O8
_chemical_formula_sum              "Zr4 O8"
_cell_length_a       5.1539878367877705
_cell_length_b       5.22810872
_cell_length_c       5.329696159145639
_cell_angle_alpha    90.0
_cell_angle_beta     99.43692258379697
_cell_angle_gamma    90.0

_space_group_name_H-M_alt    "P 1"
_space_group_IT_number       1

loop_
  _space_group_symop_operation_xyz
  'x, y, z'

loop_
  _atom_site_type_symbol
  _atom_site_label
  _atom_site_symmetry_multiplicity
  _atom_site_fract_x
  _atom_site_fract_y
  _atom_site_fract_z
  _atom_site_occupancy
  Zr  Zr1       1.0  0.3448840200597205  0.8191035310737895  0.7918502586260452  1.0000
  Zr  Zr2       1.0  0.7618522213450625  0.7000528506685466  0.1744188804591955  1.0000
  Zr  Zr3       1.0  0.6701426832447321  0.8442650745297211  0.5460223379654803  1.0000
  Zr  Zr4       1.0  0.1061210589984225  0.26816975790636466  0.23967798224458647  1.0000
  O   O1        1.0  0.9461128601897641  0.7922488622671828  0.14748149811115852  1.0000
  O   O2        1.0  0.9892202504448591  0.4975979985425454  0.8172138800138598  1.0000
  O   O3        1.0  0.08993631852066386  0.4755040910357309  0.9800083624411329  1.0000
  O   O4        1.0  0.9030281462199131  0.04412829403069507  0.8496194754975868  1.0000
  O   O5        1.0  0.7763959641396028  0.5223919383861677  0.5303664316554442  1.0000
  O   O6        1.0  0.14824449953552588  0.6309146156632153  0.8309851515689353  1.0000
  O   O7        1.0  0.3004551493879575  0.7503823057526464  0.35748891080369916  1.0000
  O   O8        1.0  0.9236104690556033  0.0075920857233064964  0.6935683491964966  1.0000
