data_image0
_chemical_formula_structural       Zr4O8
_chemical_formula_sum              "Zr4 O8"
_cell_length_a       5.1539878367877705
_cell_length_b       5.22810872
_cell_length_c       5.329696159145639
_cell_angle_alpha    90.0
_cell_angle_beta     99.43692258379697
_cell_angle_gamma    90.0

_space_group_name_H-M_alt    "P 1"
_space_group_IT_number       1

loop_
  _space_group_symop_operation_xyz
  'x, y, z'

loop_
  _atom_site_type_symbol
  _atom_site_label
  _atom_site_symmetry_multiplicity
  _atom_site_fract_x
  _atom_site_fract_y
  _atom_site_fract_z
  _atom_site_occupancy
  Zr  Zr1       1.0  0.71439575687043  0.8216633889414489  0.6504298366901216  1.0000
  Zr  Zr2       1.0  0.8929461618042573  0.34190328184870467  0.239948191728784  1.0000
  Zr  Zr3       1.0  0.1884798220928836  0.2373921935711607  0.7239557575523223  1.0000
  Zr  Zr4       1.0  0.4856838150776768  0.6029052807923279  0.5259061179383755  1.0000
  O   O1        1.0  0.7785117367800822  0.49430895277570386  0.5333278828261108  1.0000
  O   O2        1.0  0.3224247211641469  0.5472201201676832  0.5605995702463513  1.0000
  O   O3        1.0  0.06237721781063943  0.8917268384110733  0.8095584322350398  1.0000
  O   O4        1.0  0.778730323521124  0.08230696860631159  0.1659979515071548  1.0000
  O   O5        1.0  0.3573908003341937  0.6005510210536613  0.19933009760853082  1.0000
  O   O6        1.0  0.9637441713771455  0.4279188621594656  0.7710046074468861  1.0000
  O   O7        1.0  0.44026846933984753  0.9339164891851333  0.13080798316394038  1.0000
  O   O8        1.0  0.9624856642162882  0.10517588920923515  0.7555606931134102  1.0000
