data_image0
_chemical_formula_structural       Zr4O8
_chemical_formula_sum              "Zr4 O8"
_cell_length_a       5.1539878367877705
_cell_length_b       5.22810872
_cell_length_c       5.329696159145639
_cell_angle_alpha    90.0
_cell_angle_beta     99.43692258379697
_cell_angle_gamma    90.0

_space_group_name_H-M_alt    "P 1"
_space_group_IT_number       1

loop_
  _space_group_symop_operation_xyz
  'x, y, z'

loop_
  _atom_site_type_symbol
  _atom_site_label
  _atom_site_symmetry_multiplicity
  _atom_site_fract_x
  _atom_site_fract_y
  _atom_site_fract_z
  _atom_site_occupancy
  Zr  Zr1       1.0  0.9587128621358136  0.17382402343055148  0.9519744182343302  1.0000
  Zr  Zr2       1.0  0.7811169344066613  0.5963571451616474  0.9515885931059618  1.0000
  Zr  Zr3       1.0  0.9143048078695131  0.4874532966592353  0.5544104010704376  1.0000
  Zr  Zr4       1.0  0.8744002810924947  0.11237608636442609  0.946331628459486  1.0000
  O   O1        1.0  0.4091339635214588  0.49267859493605215  0.8952657641081601  1.0000
  O   O2        1.0  0.16058926245745475  0.842084489656064  0.5351489119197197  1.0000
  O   O3        1.0  0.02241190286052094  0.874811711971156  0.0688421210143968  1.0000
  O   O4        1.0  0.5516651098368399  0.5253245289110926  0.7736493462995568  1.0000
  O   O5        1.0  0.8177991712840358  0.9104793475789634  0.47719453702714176  1.0000
  O   O6        1.0  0.48561880358483656  0.9974085794912071  0.26662662056108033  1.0000
  O   O7        1.0  0.41823235339034603  0.27784419515836056  0.06250688447050123  1.0000
  O   O8        1.0  0.695607043581429  0.6291797271170481  0.6382447947316674  1.0000
