data_image0
_chemical_formula_structural       Zr4O8
_chemical_formula_sum              "Zr4 O8"
_cell_length_a       5.1539878367877705
_cell_length_b       5.22810872
_cell_length_c       5.329696159145639
_cell_angle_alpha    90.0
_cell_angle_beta     99.43692258379697
_cell_angle_gamma    90.0

_space_group_name_H-M_alt    "P 1"
_space_group_IT_number       1

loop_
  _space_group_symop_operation_xyz
  'x, y, z'

loop_
  _atom_site_type_symbol
  _atom_site_label
  _atom_site_symmetry_multiplicity
  _atom_site_fract_x
  _atom_site_fract_y
  _atom_site_fract_z
  _atom_site_occupancy
  Zr  Zr1       1.0  0.08344782872533685  0.3056669909764942  0.09225742982874863  1.0000
  Zr  Zr2       1.0  0.8024093735602982  0.08566050973668027  0.42969982859230704  1.0000
  Zr  Zr3       1.0  0.07021338507993935  0.787101087642661  0.5589175680975398  1.0000
  Zr  Zr4       1.0  0.6538803016948007  0.5258645603411054  0.9663599921106538  1.0000
  O   O1        1.0  0.6454514048469555  0.7657308320661187  0.6817478528773258  1.0000
  O   O2        1.0  0.6118849899819239  0.644657559436105  0.7763106386414229  1.0000
  O   O3        1.0  0.5976591049921893  0.9095532567564177  0.7792478039927531  1.0000
  O   O4        1.0  0.2747919005296193  0.42881900499545544  0.3611938848934564  1.0000
  O   O5        1.0  0.2874833711046989  0.6798544120038699  0.2508255376103037  1.0000
  O   O6        1.0  0.19448683440428383  0.9310005304624056  0.07343861767473558  1.0000
  O   O7        1.0  0.6437400474149086  0.17075791323563294  0.7052371294300457  1.0000
  O   O8        1.0  0.3433124413535307  0.7924841085022827  0.736305017685865  1.0000
