data_image0
_chemical_formula_structural       Zr4O8
_chemical_formula_sum              "Zr4 O8"
_cell_length_a       5.1539878367877705
_cell_length_b       5.22810872
_cell_length_c       5.329696159145639
_cell_angle_alpha    90.0
_cell_angle_beta     99.43692258379697
_cell_angle_gamma    90.0

_space_group_name_H-M_alt    "P 1"
_space_group_IT_number       1

loop_
  _space_group_symop_operation_xyz
  'x, y, z'

loop_
  _atom_site_type_symbol
  _atom_site_label
  _atom_site_symmetry_multiplicity
  _atom_site_fract_x
  _atom_site_fract_y
  _atom_site_fract_z
  _atom_site_occupancy
  Zr  Zr1       1.0  0.32572092240882  0.20058137164942025  0.4224076574907478  1.0000
  Zr  Zr2       1.0  0.6005066898968341  0.41089270493866803  0.29118749205202654  1.0000
  Zr  Zr3       1.0  0.710964126754865  0.34638942694801145  0.4047009172090571  1.0000
  Zr  Zr4       1.0  0.3487454660663203  0.6126081718715768  0.512350355225557  1.0000
  O   O1        1.0  0.3416087998290642  0.44395955151094135  0.9781663950287971  1.0000
  O   O2        1.0  0.475828502661642  0.1480992454760326  0.1910681412957267  1.0000
  O   O3        1.0  0.9116207234809721  0.7058341952206213  0.5326523010279409  1.0000
  O   O4        1.0  0.665728530575505  0.6946672567571426  0.8049288436305844  1.0000
  O   O5        1.0  0.32187560221857936  0.09089123582623415  0.4895513853730975  1.0000
  O   O6        1.0  0.9595832908512278  0.9031604515056415  0.7044445509248547  1.0000
  O   O7        1.0  0.045223014352988145  0.5284155550358118  0.6848055701050626  1.0000
  O   O8        1.0  0.6606592508717135  0.876114289594411  0.5778503582349419  1.0000
