data_image0
_chemical_formula_structural       Zr4O8
_chemical_formula_sum              "Zr4 O8"
_cell_length_a       5.1539878367877705
_cell_length_b       5.22810872
_cell_length_c       5.329696159145639
_cell_angle_alpha    90.0
_cell_angle_beta     99.43692258379697
_cell_angle_gamma    90.0

_space_group_name_H-M_alt    "P 1"
_space_group_IT_number       1

loop_
  _space_group_symop_operation_xyz
  'x, y, z'

loop_
  _atom_site_type_symbol
  _atom_site_label
  _atom_site_symmetry_multiplicity
  _atom_site_fract_x
  _atom_site_fract_y
  _atom_site_fract_z
  _atom_site_occupancy
  Zr  Zr1       1.0  0.751616832768109  0.8350479819029708  0.540355858831294  1.0000
  Zr  Zr2       1.0  0.6580067352396597  0.38053256259989965  0.7107116111129619  1.0000
  Zr  Zr3       1.0  0.747881885379396  0.1259808843283352  0.9325565529690678  1.0000
  Zr  Zr4       1.0  0.35180639363625765  0.3204797951536289  0.12913691611686673  1.0000
  O   O1        1.0  0.7095048757287401  0.07258340683628717  0.16479805513076506  1.0000
  O   O2        1.0  0.2929144637810097  0.7328881100010278  0.2743465501123481  1.0000
  O   O3        1.0  0.33669988786110494  0.32545710925435145  0.4018996229190499  1.0000
  O   O4        1.0  0.681181888829995  0.8775203756623666  0.9107879256330236  1.0000
  O   O5        1.0  0.512392702836916  0.513182398336113  0.6545342964390883  1.0000
  O   O6        1.0  0.011852305672249486  0.4540507832211276  0.4946841892159348  1.0000
  O   O7        1.0  0.7044620460286843  0.7869234812705912  0.21493233935494338  1.0000
  O   O8        1.0  0.9228042139031363  0.12268185113179086  0.3175622293413909  1.0000
