data_image0
_chemical_formula_structural       Zr4O8
_chemical_formula_sum              "Zr4 O8"
_cell_length_a       5.1539878367877705
_cell_length_b       5.22810872
_cell_length_c       5.329696159145639
_cell_angle_alpha    90.0
_cell_angle_beta     99.43692258379697
_cell_angle_gamma    90.0

_space_group_name_H-M_alt    "P 1"
_space_group_IT_number       1

loop_
  _space_group_symop_operation_xyz
  'x, y, z'

loop_
  _atom_site_type_symbol
  _atom_site_label
  _atom_site_symmetry_multiplicity
  _atom_site_fract_x
  _atom_site_fract_y
  _atom_site_fract_z
  _atom_site_occupancy
  Zr  Zr1       1.0  0.43785805685004775  0.6928636811559254  0.3261254757392287  1.0000
  Zr  Zr2       1.0  0.3338333509936575  0.14421345150021025  0.9455504356512803  1.0000
  Zr  Zr3       1.0  0.6060541791925047  0.2077081597945396  0.8414013953060007  1.0000
  Zr  Zr4       1.0  0.7198203886632166  0.5426999858446466  0.7130869929174146  1.0000
  O   O1        1.0  0.8426817362555994  0.9732837551978797  0.44017528724925015  1.0000
  O   O2        1.0  0.2135013672302437  0.5707350513155447  0.3911200236735972  1.0000
  O   O3        1.0  0.6129708651595465  0.786302196059335  0.6684926785900314  1.0000
  O   O4        1.0  0.902518230306601  0.47685500194013564  0.9150681921447319  1.0000
  O   O5        1.0  0.3400275910166677  0.9432519532012336  0.1417297377250577  1.0000
  O   O6        1.0  0.4264102253554327  0.2665924386492975  0.5125031342254438  1.0000
  O   O7        1.0  0.12644633370878822  0.7288805313058848  0.12602575200831723  1.0000
  O   O8        1.0  0.7002131422663478  0.11502164727071928  0.8654455486382329  1.0000
