data_image0
_chemical_formula_structural       Zr4O8
_chemical_formula_sum              "Zr4 O8"
_cell_length_a       5.1539878367877705
_cell_length_b       5.22810872
_cell_length_c       5.329696159145639
_cell_angle_alpha    90.0
_cell_angle_beta     99.43692258379697
_cell_angle_gamma    90.0

_space_group_name_H-M_alt    "P 1"
_space_group_IT_number       1

loop_
  _space_group_symop_operation_xyz
  'x, y, z'

loop_
  _atom_site_type_symbol
  _atom_site_label
  _atom_site_symmetry_multiplicity
  _atom_site_fract_x
  _atom_site_fract_y
  _atom_site_fract_z
  _atom_site_occupancy
  Zr  Zr1       1.0  0.24608150548947272  0.737832828158794  0.17594515187309412  1.0000
  Zr  Zr2       1.0  0.5490988545644093  0.135231410911119  0.6702666813468476  1.0000
  Zr  Zr3       1.0  0.01634761376802718  0.4365468839468676  0.5350809398285477  1.0000
  Zr  Zr4       1.0  0.40860811098368366  0.9760286153292101  0.8601514716177938  1.0000
  O   O1        1.0  0.26799399975816396  0.5395337946998016  0.9917376836496388  1.0000
  O   O2        1.0  0.488325183378592  0.24701223013465778  0.6956996995078821  1.0000
  O   O3        1.0  0.4440167763458245  0.10432491185212456  0.973514981941257  1.0000
  O   O4        1.0  0.41422167944774335  0.8955232669768804  0.8579672793291806  1.0000
  O   O5        1.0  0.4900586696572429  0.5558252876592178  0.488447959977222  1.0000
  O   O6        1.0  0.9791566939579965  0.6498512517328479  0.24876887827893768  1.0000
  O   O7        1.0  0.6123023376656818  0.8960016532526041  0.7525183648764937  1.0000
  O   O8        1.0  0.7810053763886469  0.1918745600434164  0.09885837812387699  1.0000
