data_image0
_chemical_formula_structural       Zr4O8
_chemical_formula_sum              "Zr4 O8"
_cell_length_a       5.1539878367877705
_cell_length_b       5.22810872
_cell_length_c       5.329696159145639
_cell_angle_alpha    90.0
_cell_angle_beta     99.43692258379697
_cell_angle_gamma    90.0

_space_group_name_H-M_alt    "P 1"
_space_group_IT_number       1

loop_
  _space_group_symop_operation_xyz
  'x, y, z'

loop_
  _atom_site_type_symbol
  _atom_site_label
  _atom_site_symmetry_multiplicity
  _atom_site_fract_x
  _atom_site_fract_y
  _atom_site_fract_z
  _atom_site_occupancy
  Zr  Zr1       1.0  0.8827508359208505  0.9561045119162941  0.19025726928863462  1.0000
  Zr  Zr2       1.0  0.2615140046771014  0.08074372014943876  0.6613432331513387  1.0000
  Zr  Zr3       1.0  0.16240868317679968  0.9392267339908944  0.1675342330058207  1.0000
  Zr  Zr4       1.0  0.9690968616839619  0.7804224338381731  0.7651230955445034  1.0000
  O   O1        1.0  0.6552502525836843  0.5098554462437015  0.6349783356364682  1.0000
  O   O2        1.0  0.851223342086451  0.7288152180928851  0.4676776639045359  1.0000
  O   O3        1.0  0.45446786939261763  0.09837156289561566  0.16543169370764588  1.0000
  O   O4        1.0  0.49780273877208003  0.8107826681353547  0.5531655297904194  1.0000
  O   O5        1.0  0.8635917859853741  0.8729102270379236  0.3552424902089797  1.0000
  O   O6        1.0  0.7410227416446697  0.18263907583459016  0.020255626205252675  1.0000
  O   O7        1.0  0.3167699838831126  0.07389838151456907  0.1159712393948098  1.0000
  O   O8        1.0  0.33823831826192574  0.6725244429170019  0.9592416846809204  1.0000
