data_image0
_chemical_formula_structural       Zr4O8
_chemical_formula_sum              "Zr4 O8"
_cell_length_a       5.1539878367877705
_cell_length_b       5.22810872
_cell_length_c       5.329696159145639
_cell_angle_alpha    90.0
_cell_angle_beta     99.43692258379697
_cell_angle_gamma    90.0

_space_group_name_H-M_alt    "P 1"
_space_group_IT_number       1

loop_
  _space_group_symop_operation_xyz
  'x, y, z'

loop_
  _atom_site_type_symbol
  _atom_site_label
  _atom_site_symmetry_multiplicity
  _atom_site_fract_x
  _atom_site_fract_y
  _atom_site_fract_z
  _atom_site_occupancy
  Zr  Zr1       1.0  0.25820586920760924  0.7077843953671037  0.6681687671672982  1.0000
  Zr  Zr2       1.0  0.11749443726486142  0.5493825322627366  0.25215389656901266  1.0000
  Zr  Zr3       1.0  0.305284465843231  0.9816050662994098  0.6692748997584936  1.0000
  Zr  Zr4       1.0  0.7845557233132916  0.05442066960945491  0.01692650289529496  1.0000
  O   O1        1.0  0.4455433964358768  0.4496990968915071  0.9037283709655419  1.0000
  O   O2        1.0  0.6513278669685381  0.30569811233386013  0.1700132897670814  1.0000
  O   O3        1.0  0.44353439501975167  0.8348129332337215  0.0651584447179907  1.0000
  O   O4        1.0  0.27180914482569385  0.27116477493110125  0.15776024136656375  1.0000
  O   O5        1.0  0.23542129251800858  0.7747131444339006  0.07914943733922009  1.0000
  O   O6        1.0  0.3432253125988929  0.6345901772491613  0.044060471346387686  1.0000
  O   O7        1.0  0.33267762026476344  0.10859245158483688  0.5458786022939464  1.0000
  O   O8        1.0  0.907117402061532  0.8313121431873824  0.35406738229427115  1.0000
