data_image0
_chemical_formula_structural       Zr4O8
_chemical_formula_sum              "Zr4 O8"
_cell_length_a       5.1539878367877705
_cell_length_b       5.22810872
_cell_length_c       5.329696159145639
_cell_angle_alpha    90.0
_cell_angle_beta     99.43692258379697
_cell_angle_gamma    90.0

_space_group_name_H-M_alt    "P 1"
_space_group_IT_number       1

loop_
  _space_group_symop_operation_xyz
  'x, y, z'

loop_
  _atom_site_type_symbol
  _atom_site_label
  _atom_site_symmetry_multiplicity
  _atom_site_fract_x
  _atom_site_fract_y
  _atom_site_fract_z
  _atom_site_occupancy
  Zr  Zr1       1.0  0.0041963941554676865  0.8599027198476747  0.8066645142331517  1.0000
  Zr  Zr2       1.0  0.4290302869143243  0.6408946585016544  0.03062374604972895  1.0000
  Zr  Zr3       1.0  0.5690685799291586  0.3461691862364624  0.13891300768694137  1.0000
  Zr  Zr4       1.0  0.43598493142112726  0.6218636599075866  0.07487302357516512  1.0000
  O   O1        1.0  0.15315842062245366  0.8835301483097702  0.3696247664980721  1.0000
  O   O2        1.0  0.24339458694864646  0.01382165852982098  0.42690502908912364  1.0000
  O   O3        1.0  0.21626327577434878  0.4012203985445524  0.05480399340352271  1.0000
  O   O4        1.0  0.6791633501730097  0.3365491314889306  0.5764592933380648  1.0000
  O   O5        1.0  0.6843609580574395  0.984214522612227  0.19876169680013955  1.0000
  O   O6        1.0  0.5802422963887857  0.813295471477339  0.04172795794951156  1.0000
  O   O7        1.0  0.6217309083557048  0.4320072185028234  0.5348924828917472  1.0000
  O   O8        1.0  0.5877904558812475  0.2293529142243429  0.21948789767995436  1.0000
