data_image0
_chemical_formula_structural       Zr4O8
_chemical_formula_sum              "Zr4 O8"
_cell_length_a       5.1539878367877705
_cell_length_b       5.22810872
_cell_length_c       5.329696159145639
_cell_angle_alpha    90.0
_cell_angle_beta     99.43692258379697
_cell_angle_gamma    90.0

_space_group_name_H-M_alt    "P 1"
_space_group_IT_number       1

loop_
  _space_group_symop_operation_xyz
  'x, y, z'

loop_
  _atom_site_type_symbol
  _atom_site_label
  _atom_site_symmetry_multiplicity
  _atom_site_fract_x
  _atom_site_fract_y
  _atom_site_fract_z
  _atom_site_occupancy
  Zr  Zr1       1.0  0.644382312888931  0.06094316238515418  0.03440612189151088  1.0000
  Zr  Zr2       1.0  0.16139551125093377  0.3725999994221283  0.13357826620198132  1.0000
  Zr  Zr3       1.0  0.12831825252557927  0.3899189321659082  0.6518317479774485  1.0000
  Zr  Zr4       1.0  0.4170039673994045  0.10107473618628937  0.6428189005705027  1.0000
  O   O1        1.0  0.7865122805710545  0.20735558844436497  0.6968970871837015  1.0000
  O   O2        1.0  0.30822089088439775  0.3000088052129426  0.642029605600575  1.0000
  O   O3        1.0  0.5230198985132635  0.27813606272717556  0.9289688488538275  1.0000
  O   O4        1.0  0.4519877818575839  0.7206826276521596  0.2793450957043646  1.0000
  O   O5        1.0  0.8955575232501634  0.907406610939157  0.344026485927607  1.0000
  O   O6        1.0  0.8569616193510363  0.18087072958345551  0.7660612669333613  1.0000
  O   O7        1.0  0.9094189480404538  0.4422816994950516  0.7697738331050381  1.0000
  O   O8        1.0  0.6861721016142399  0.8748944160717613  0.32833636774976105  1.0000
