data_image0
_chemical_formula_structural       Zr4O8
_chemical_formula_sum              "Zr4 O8"
_cell_length_a       5.1539878367877705
_cell_length_b       5.22810872
_cell_length_c       5.329696159145639
_cell_angle_alpha    90.0
_cell_angle_beta     99.43692258379697
_cell_angle_gamma    90.0

_space_group_name_H-M_alt    "P 1"
_space_group_IT_number       1

loop_
  _space_group_symop_operation_xyz
  'x, y, z'

loop_
  _atom_site_type_symbol
  _atom_site_label
  _atom_site_symmetry_multiplicity
  _atom_site_fract_x
  _atom_site_fract_y
  _atom_site_fract_z
  _atom_site_occupancy
  Zr  Zr1       1.0  0.7447025373562157  0.5854789427851532  0.5715929021238715  1.0000
  Zr  Zr2       1.0  0.2805027496179804  0.37759893841210257  0.9018620836671412  1.0000
  Zr  Zr3       1.0  0.8490157593659164  0.8045187621221999  0.0014851090397876021  1.0000
  Zr  Zr4       1.0  0.787101054909586  0.20120135129963046  0.9745494895635289  1.0000
  O   O1        1.0  0.03360713177015384  0.9292416723627852  0.1971470558422297  1.0000
  O   O2        1.0  0.07599292384536938  0.9821211049511049  0.5345173465062771  1.0000
  O   O3        1.0  0.8025256347706122  0.10555831873880095  0.6516932322798485  1.0000
  O   O4        1.0  0.2720512435569793  0.07741243266938991  0.6293671020291356  1.0000
  O   O5        1.0  0.9148815833306969  0.10888647426659404  0.9567938626927073  1.0000
  O   O6        1.0  0.550952064015366  0.21822299041380688  0.7524046763213299  1.0000
  O   O7        1.0  0.5697509258876217  0.2850089496620072  0.6023160709760997  1.0000
  O   O8        1.0  0.9675020327807609  0.49317609369418136  0.3913468245640246  1.0000
