data_image0
_chemical_formula_structural       Zr4O8
_chemical_formula_sum              "Zr4 O8"
_cell_length_a       5.1539878367877705
_cell_length_b       5.22810872
_cell_length_c       5.329696159145639
_cell_angle_alpha    90.0
_cell_angle_beta     99.43692258379697
_cell_angle_gamma    90.0

_space_group_name_H-M_alt    "P 1"
_space_group_IT_number       1

loop_
  _space_group_symop_operation_xyz
  'x, y, z'

loop_
  _atom_site_type_symbol
  _atom_site_label
  _atom_site_symmetry_multiplicity
  _atom_site_fract_x
  _atom_site_fract_y
  _atom_site_fract_z
  _atom_site_occupancy
  Zr  Zr1       1.0  0.9692685012896844  0.9674092724546988  0.8410929666566549  1.0000
  Zr  Zr2       1.0  0.9072444440857996  0.5004421431990527  0.856790225339302  1.0000
  Zr  Zr3       1.0  0.8333639321803609  0.5265782671402413  0.7919813412758376  1.0000
  Zr  Zr4       1.0  0.05933355493404413  0.9381044006338009  0.46092423864848264  1.0000
  O   O1        1.0  0.25019269746427497  0.08870661448220929  0.589714282939859  1.0000
  O   O2        1.0  0.29450631966077623  0.1901520818530571  0.38304390001351885  1.0000
  O   O3        1.0  0.2123627697933017  0.11598990543704701  0.44393082890085456  1.0000
  O   O4        1.0  0.9182332989123392  0.16871401395861696  0.5765699946933935  1.0000
  O   O5        1.0  0.9407139940519187  0.6763665778505512  0.8809683688356111  1.0000
  O   O6        1.0  0.6193454669568723  0.5440881942848108  0.3884556756183626  1.0000
  O   O7        1.0  0.03760486381835548  0.005033498005043491  0.10963649379482021  1.0000
  O   O8        1.0  0.7312067771935249  0.2951687524589346  0.5154552611070535  1.0000
