data_image0
_chemical_formula_structural       Zr4O8
_chemical_formula_sum              "Zr4 O8"
_cell_length_a       5.1539878367877705
_cell_length_b       5.22810872
_cell_length_c       5.329696159145639
_cell_angle_alpha    90.0
_cell_angle_beta     99.43692258379697
_cell_angle_gamma    90.0

_space_group_name_H-M_alt    "P 1"
_space_group_IT_number       1

loop_
  _space_group_symop_operation_xyz
  'x, y, z'

loop_
  _atom_site_type_symbol
  _atom_site_label
  _atom_site_symmetry_multiplicity
  _atom_site_fract_x
  _atom_site_fract_y
  _atom_site_fract_z
  _atom_site_occupancy
  Zr  Zr1       1.0  0.32720551339954795  0.37774737249275425  0.4880961752023891  1.0000
  Zr  Zr2       1.0  0.2760597518202559  0.24634801402868334  0.2277416017428049  1.0000
  Zr  Zr3       1.0  0.7984789447126346  0.8436929241977764  0.25847191096871036  1.0000
  Zr  Zr4       1.0  0.1984569364394806  0.6305448588018416  0.1793827730983999  1.0000
  O   O1        1.0  0.589292435580802  0.47190851163761494  0.9720922702222037  1.0000
  O   O2        1.0  0.6011971667263953  0.16333948456906278  0.962882375440179  1.0000
  O   O3        1.0  0.6179789870950838  0.6699535521534548  0.0874455371048306  1.0000
  O   O4        1.0  0.1815537254557551  0.32593639865769575  0.13067298430087426  1.0000
  O   O5        1.0  0.8166101712854221  0.5903778660033918  0.847013002467218  1.0000
  O   O6        1.0  0.5940086543225043  0.28716033223985704  0.6584767126696764  1.0000
  O   O7        1.0  0.07189982762280578  0.4881053816062817  0.4214297287643376  1.0000
  O   O8        1.0  0.47082160577036647  0.8564943541031553  0.9131837257118942  1.0000
