data_image0
_chemical_formula_structural       Zr4O8
_chemical_formula_sum              "Zr4 O8"
_cell_length_a       5.1539878367877705
_cell_length_b       5.22810872
_cell_length_c       5.329696159145639
_cell_angle_alpha    90.0
_cell_angle_beta     99.43692258379697
_cell_angle_gamma    90.0

_space_group_name_H-M_alt    "P 1"
_space_group_IT_number       1

loop_
  _space_group_symop_operation_xyz
  'x, y, z'

loop_
  _atom_site_type_symbol
  _atom_site_label
  _atom_site_symmetry_multiplicity
  _atom_site_fract_x
  _atom_site_fract_y
  _atom_site_fract_z
  _atom_site_occupancy
  Zr  Zr1       1.0  0.16122104920027525  0.8011189269970096  0.6866022280962891  1.0000
  Zr  Zr2       1.0  0.9460220415176295  0.6641962662019081  0.11659460659301946  1.0000
  Zr  Zr3       1.0  0.9736806915795082  0.8259809010813122  0.11339383538181036  1.0000
  Zr  Zr4       1.0  0.551688453129918  0.2089322691153459  0.7931417395259324  1.0000
  O   O1        1.0  0.3073433457461032  0.5991380486093227  0.03908988292056392  1.0000
  O   O2        1.0  0.5062172192342302  0.692198980352515  0.25050576082792375  1.0000
  O   O3        1.0  0.7428323906113938  0.7261144793542975  0.15811139092359028  1.0000
  O   O4        1.0  0.41914851704762546  0.26212210902073707  0.9444220843792834  1.0000
  O   O5        1.0  0.11093559818096566  0.03871395191117699  0.9708177076604265  1.0000
  O   O6        1.0  0.6622626050356644  0.3453482328370576  0.8056935095190703  1.0000
  O   O7        1.0  0.10771145724324072  0.7934731116859961  0.4153115549413897  1.0000
  O   O8        1.0  0.673866592270226  0.46340036037690524  0.4321085107106626  1.0000
