data_image0
_chemical_formula_structural       Zr4O8
_chemical_formula_sum              "Zr4 O8"
_cell_length_a       5.1539878367877705
_cell_length_b       5.22810872
_cell_length_c       5.329696159145639
_cell_angle_alpha    90.0
_cell_angle_beta     99.43692258379697
_cell_angle_gamma    90.0

_space_group_name_H-M_alt    "P 1"
_space_group_IT_number       1

loop_
  _space_group_symop_operation_xyz
  'x, y, z'

loop_
  _atom_site_type_symbol
  _atom_site_label
  _atom_site_symmetry_multiplicity
  _atom_site_fract_x
  _atom_site_fract_y
  _atom_site_fract_z
  _atom_site_occupancy
  Zr  Zr1       1.0  0.9101548344386745  0.9213427117129296  0.20296375133333777  1.0000
  Zr  Zr2       1.0  0.396082266736542  0.4879009986124334  0.09924534204802526  1.0000
  Zr  Zr3       1.0  0.06702954851876997  0.7902071341517178  0.23217444301349843  1.0000
  Zr  Zr4       1.0  0.27043784791628056  0.3744532068943478  0.23448418232822021  1.0000
  O   O1        1.0  0.6703754171729734  0.5545575913260583  0.37264406129704497  1.0000
  O   O2        1.0  0.8658981321831725  0.323775216970013  0.7630462303894783  1.0000
  O   O3        1.0  0.8343736184037454  0.7556597910771359  0.13601250028525058  1.0000
  O   O4        1.0  0.1548999735719967  0.49138566270240247  0.8557216358965434  1.0000
  O   O5        1.0  0.7513295080057532  0.7071530725864648  0.48832293566710194  1.0000
  O   O6        1.0  0.7194095606717212  0.6215228173158778  0.09347794568504697  1.0000
  O   O7        1.0  0.8708899310446832  0.8313871113094313  0.3835454276012378  1.0000
  O   O8        1.0  0.9452819244330772  0.6938570261382608  0.35358868610282457  1.0000
