data_image0
_chemical_formula_structural       Zr4O8
_chemical_formula_sum              "Zr4 O8"
_cell_length_a       5.1539878367877705
_cell_length_b       5.22810872
_cell_length_c       5.329696159145639
_cell_angle_alpha    90.0
_cell_angle_beta     99.43692258379697
_cell_angle_gamma    90.0

_space_group_name_H-M_alt    "P 1"
_space_group_IT_number       1

loop_
  _space_group_symop_operation_xyz
  'x, y, z'

loop_
  _atom_site_type_symbol
  _atom_site_label
  _atom_site_symmetry_multiplicity
  _atom_site_fract_x
  _atom_site_fract_y
  _atom_site_fract_z
  _atom_site_occupancy
  Zr  Zr1       1.0  0.19603573360248916  0.6185745896299863  0.01886103297650621  1.0000
  Zr  Zr2       1.0  0.07054892763519227  0.4885878024747483  0.22638949968931588  1.0000
  Zr  Zr3       1.0  0.04783504597373511  0.2287183809212614  0.31054720468739916  1.0000
  Zr  Zr4       1.0  0.591673241114941  0.4134076559995936  0.4099675453720266  1.0000
  O   O1        1.0  0.9125645679747798  0.06776626933669405  0.8260522630433833  1.0000
  O   O2        1.0  0.9738210562587142  0.14964905875598333  0.4237802619699771  1.0000
  O   O3        1.0  0.8368878028559212  0.9389714006150562  0.3761575038023217  1.0000
  O   O4        1.0  0.18968224452961735  0.501730321962313  0.3387951989326581  1.0000
  O   O5        1.0  0.7545256509320382  0.8679982199568954  0.16583434347148085  1.0000
  O   O6        1.0  0.986210970952051  0.835361160813548  0.421122334307014  1.0000
  O   O7        1.0  0.050221482558605146  0.2896866394433184  0.2913426304399387  1.0000
  O   O8        1.0  0.8818077264655313  0.8511067396064363  0.1072268911589962  1.0000
