data_image0
_chemical_formula_structural       Zr4O8
_chemical_formula_sum              "Zr4 O8"
_cell_length_a       5.1539878367877705
_cell_length_b       5.22810872
_cell_length_c       5.329696159145639
_cell_angle_alpha    90.0
_cell_angle_beta     99.43692258379697
_cell_angle_gamma    90.0

_space_group_name_H-M_alt    "P 1"
_space_group_IT_number       1

loop_
  _space_group_symop_operation_xyz
  'x, y, z'

loop_
  _atom_site_type_symbol
  _atom_site_label
  _atom_site_symmetry_multiplicity
  _atom_site_fract_x
  _atom_site_fract_y
  _atom_site_fract_z
  _atom_site_occupancy
  Zr  Zr1       1.0  0.45977715736564795  0.9716586977237558  0.0836352715180686  1.0000
  Zr  Zr2       1.0  0.21402434171284845  0.38906485918487244  0.4119295192669439  1.0000
  Zr  Zr3       1.0  0.865804574254984  0.13455177194704326  0.1636508957303242  1.0000
  Zr  Zr4       1.0  0.23688274283156296  0.2082548364177752  0.19205749813967365  1.0000
  O   O1        1.0  0.46705237808249933  0.09552993694910672  0.0682931679597587  1.0000
  O   O2        1.0  0.9856688030638487  0.2598028883192782  0.8210526407058762  1.0000
  O   O3        1.0  0.36383671562021647  0.28292313662408475  0.1584381813330289  1.0000
  O   O4        1.0  0.791990016877735  0.23980758854487405  0.859750777726255  1.0000
  O   O5        1.0  0.2331407314651628  0.1403165622168352  0.4747855693153342  1.0000
  O   O6        1.0  0.2756821655920092  0.43825656727829454  0.6794247768162673  1.0000
  O   O7        1.0  0.1966514206184975  0.15301559893830508  0.14865931464439797  1.0000
  O   O8        1.0  0.6458197395220449  0.6930686612961097  0.3464335865499457  1.0000
