data_image0
_chemical_formula_structural       Zr4O8
_chemical_formula_sum              "Zr4 O8"
_cell_length_a       5.1539878367877705
_cell_length_b       5.22810872
_cell_length_c       5.329696159145639
_cell_angle_alpha    90.0
_cell_angle_beta     99.43692258379697
_cell_angle_gamma    90.0

_space_group_name_H-M_alt    "P 1"
_space_group_IT_number       1

loop_
  _space_group_symop_operation_xyz
  'x, y, z'

loop_
  _atom_site_type_symbol
  _atom_site_label
  _atom_site_symmetry_multiplicity
  _atom_site_fract_x
  _atom_site_fract_y
  _atom_site_fract_z
  _atom_site_occupancy
  Zr  Zr1       1.0  0.7714173437193299  0.639327235094342  0.4229491693258218  1.0000
  Zr  Zr2       1.0  0.3697815749569662  0.4222777958406372  0.08117108686202101  1.0000
  Zr  Zr3       1.0  0.07433314053494659  0.9757212749198736  0.059585548230028706  1.0000
  Zr  Zr4       1.0  0.011503340098325987  0.8342205914982621  0.5723971580190383  1.0000
  O   O1        1.0  0.22636071319384854  0.17957981919443355  0.5846391846379415  1.0000
  O   O2        1.0  0.97413956771409  0.2829335993305193  0.4789325462807028  1.0000
  O   O3        1.0  0.6326000751287069  0.7630149171160951  0.3923457582777701  1.0000
  O   O4        1.0  0.24452956648488744  0.7380867879701114  0.8816400013386279  1.0000
  O   O5        1.0  0.270559402940731  0.2205724657539605  0.5353454113234406  1.0000
  O   O6        1.0  0.3304434291530498  0.374529380691186  0.6090586655029961  1.0000
  O   O7        1.0  0.06953019135060234  0.2818057791738191  0.9831311747971192  1.0000
  O   O8        1.0  0.5493966847239715  0.9833218210681487  0.09221041260753715  1.0000
