data_image0
_chemical_formula_structural       Zr4O8
_chemical_formula_sum              "Zr4 O8"
_cell_length_a       5.1539878367877705
_cell_length_b       5.22810872
_cell_length_c       5.329696159145639
_cell_angle_alpha    90.0
_cell_angle_beta     99.43692258379697
_cell_angle_gamma    90.0

_space_group_name_H-M_alt    "P 1"
_space_group_IT_number       1

loop_
  _space_group_symop_operation_xyz
  'x, y, z'

loop_
  _atom_site_type_symbol
  _atom_site_label
  _atom_site_symmetry_multiplicity
  _atom_site_fract_x
  _atom_site_fract_y
  _atom_site_fract_z
  _atom_site_occupancy
  Zr  Zr1       1.0  0.4963181294931793  0.5398665111574292  0.20675183584785017  1.0000
  Zr  Zr2       1.0  0.18685352173983283  0.9571721349412243  0.06531466586353929  1.0000
  Zr  Zr3       1.0  0.9461114443214846  0.5293573611102609  0.16932137853130547  1.0000
  Zr  Zr4       1.0  0.4520593503769186  0.9376768823898747  0.5444351352829209  1.0000
  O   O1        1.0  0.75404668338955  0.6658026817738438  0.26983343151789896  1.0000
  O   O2        1.0  0.9838750193742101  0.35287205115022857  0.7036975034077138  1.0000
  O   O3        1.0  0.18445242040697352  0.1150638594274227  0.5929119562109584  1.0000
  O   O4        1.0  0.530926577629721  0.5565266652102494  0.8677141587569395  1.0000
  O   O5        1.0  0.42329512191409435  0.9186814179385081  0.4106726430751344  1.0000
  O   O6        1.0  0.005961127786854092  0.8818548527840875  0.6422317661259811  1.0000
  O   O7        1.0  0.039526924656417606  0.7635332223220552  0.7822730392305957  1.0000
  O   O8        1.0  0.7074151743962203  0.7022336395115629  0.3739395076023513  1.0000
