data_image0
_chemical_formula_structural       Zr4O8
_chemical_formula_sum              "Zr4 O8"
_cell_length_a       5.1539878367877705
_cell_length_b       5.22810872
_cell_length_c       5.329696159145639
_cell_angle_alpha    90.0
_cell_angle_beta     99.43692258379697
_cell_angle_gamma    90.0

_space_group_name_H-M_alt    "P 1"
_space_group_IT_number       1

loop_
  _space_group_symop_operation_xyz
  'x, y, z'

loop_
  _atom_site_type_symbol
  _atom_site_label
  _atom_site_symmetry_multiplicity
  _atom_site_fract_x
  _atom_site_fract_y
  _atom_site_fract_z
  _atom_site_occupancy
  Zr  Zr1       1.0  0.27423985544559226  0.9202685827062265  0.14247687891471905  1.0000
  Zr  Zr2       1.0  0.41640613541778215  0.8781584403849543  0.1980967874066959  1.0000
  Zr  Zr3       1.0  0.2960915677848597  0.9909334573304487  0.868053843946317  1.0000
  Zr  Zr4       1.0  0.7788515704380128  0.6527689575825022  0.4847303302548802  1.0000
  O   O1        1.0  0.5027568241852265  0.19291023924185424  0.5308011217483575  1.0000
  O   O2        1.0  0.7998755733799197  0.20071460378829542  0.4590071829934095  1.0000
  O   O3        1.0  0.6507213577691813  0.6518281205373828  0.9134755162363373  1.0000
  O   O4        1.0  0.3856833228476546  0.5879250986788476  0.48445521450938367  1.0000
  O   O5        1.0  0.053374887779634506  0.16979593289443073  0.02434947162328882  1.0000
  O   O6        1.0  0.6297880958896656  0.9140225454468478  0.964051853916331  1.0000
  O   O7        1.0  0.9237960427420795  0.4114012607162252  0.2503391971845019  1.0000
  O   O8        1.0  0.609656325579067  0.6057749511354942  0.35226574954765866  1.0000
