data_image0
_chemical_formula_structural       Zr4O8
_chemical_formula_sum              "Zr4 O8"
_cell_length_a       5.1539878367877705
_cell_length_b       5.22810872
_cell_length_c       5.329696159145639
_cell_angle_alpha    90.0
_cell_angle_beta     99.43692258379697
_cell_angle_gamma    90.0

_space_group_name_H-M_alt    "P 1"
_space_group_IT_number       1

loop_
  _space_group_symop_operation_xyz
  'x, y, z'

loop_
  _atom_site_type_symbol
  _atom_site_label
  _atom_site_symmetry_multiplicity
  _atom_site_fract_x
  _atom_site_fract_y
  _atom_site_fract_z
  _atom_site_occupancy
  Zr  Zr1       1.0  0.05708254748861477  0.12224821721441437  0.2669534018745452  1.0000
  Zr  Zr2       1.0  0.5427929023243987  0.1930811521080944  0.35361079608589296  1.0000
  Zr  Zr3       1.0  0.7858129564456346  0.5528729276676394  0.4524104107765652  1.0000
  Zr  Zr4       1.0  0.3545647305060191  0.008654260676854264  0.3866359795449448  1.0000
  O   O1        1.0  0.5865026110246205  0.502089893274162  0.18594123475659785  1.0000
  O   O2        1.0  0.9808873728807441  0.7913182823840046  0.8360353996477912  1.0000
  O   O3        1.0  0.09331651064305291  0.49577253107423047  0.6236768147940221  1.0000
  O   O4        1.0  0.21368304700074603  0.08138352103811286  0.3977350099893897  1.0000
  O   O5        1.0  0.585892792628762  0.7723217615749576  0.7337788459215631  1.0000
  O   O6        1.0  0.780784653086549  0.7719104114627697  0.8032949194667989  1.0000
  O   O7        1.0  0.21714887022921658  0.7630172495595087  0.6434288399630042  1.0000
  O   O8        1.0  0.038359986459820306  0.8466852170467121  0.5962474950263186  1.0000
