data_image0
_chemical_formula_structural       Zr4O8
_chemical_formula_sum              "Zr4 O8"
_cell_length_a       5.1539878367877705
_cell_length_b       5.22810872
_cell_length_c       5.329696159145639
_cell_angle_alpha    90.0
_cell_angle_beta     99.43692258379697
_cell_angle_gamma    90.0

_space_group_name_H-M_alt    "P 1"
_space_group_IT_number       1

loop_
  _space_group_symop_operation_xyz
  'x, y, z'

loop_
  _atom_site_type_symbol
  _atom_site_label
  _atom_site_symmetry_multiplicity
  _atom_site_fract_x
  _atom_site_fract_y
  _atom_site_fract_z
  _atom_site_occupancy
  Zr  Zr1       1.0  0.9741219432008759  0.42899291016875907  0.6539366784109099  1.0000
  Zr  Zr2       1.0  0.013028549130543965  0.7067712988982038  0.72099964612371  1.0000
  Zr  Zr3       1.0  0.7305311337240177  0.6790945081463806  0.8753482500871375  1.0000
  Zr  Zr4       1.0  0.052610118778193105  0.7216716950469926  0.7834279030865101  1.0000
  O   O1        1.0  0.4565052637330531  0.8372477738735569  0.8855173185196614  1.0000
  O   O2        1.0  0.3526359455052894  0.8004381977031159  0.975069077463699  1.0000
  O   O3        1.0  0.33494929035710186  0.5023769101911171  0.6108573349974833  1.0000
  O   O4        1.0  0.9077964101925726  0.10595267112552875  0.29690827521420715  1.0000
  O   O5        1.0  0.3566629729858608  0.3185652896920175  0.12354515401882438  1.0000
  O   O6        1.0  0.4530498119574382  0.6466517591817178  0.8174003698602981  1.0000
  O   O7        1.0  0.3349113521681757  0.9046760926793906  0.7210269359397294  1.0000
  O   O8        1.0  0.5343618258168297  0.9404460294067434  0.634706067292647  1.0000
