data_image0
_chemical_formula_structural       Zr4O8
_chemical_formula_sum              "Zr4 O8"
_cell_length_a       5.1539878367877705
_cell_length_b       5.22810872
_cell_length_c       5.329696159145639
_cell_angle_alpha    90.0
_cell_angle_beta     99.43692258379697
_cell_angle_gamma    90.0

_space_group_name_H-M_alt    "P 1"
_space_group_IT_number       1

loop_
  _space_group_symop_operation_xyz
  'x, y, z'

loop_
  _atom_site_type_symbol
  _atom_site_label
  _atom_site_symmetry_multiplicity
  _atom_site_fract_x
  _atom_site_fract_y
  _atom_site_fract_z
  _atom_site_occupancy
  Zr  Zr1       1.0  0.09794326413222265  0.480196973507077  0.9005639087754354  1.0000
  Zr  Zr2       1.0  0.2316991205421104  0.595973085138493  0.15560549428600634  1.0000
  Zr  Zr3       1.0  0.8139228742636679  0.6651884465157991  0.613727464431645  1.0000
  Zr  Zr4       1.0  0.09951063200948207  0.9807519609389335  0.917063227271445  1.0000
  O   O1        1.0  0.6716652755652532  0.3949267914195431  0.7806777620193994  1.0000
  O   O2        1.0  0.16325756019850246  0.7491506452377763  0.6778175372620225  1.0000
  O   O3        1.0  0.1489244843276829  0.3998633954234698  0.4066994418160714  1.0000
  O   O4        1.0  0.7034955965757526  0.8506027928221442  0.8599918829097604  1.0000
  O   O5        1.0  0.7507220099288183  0.772202826724758  0.7716144777017675  1.0000
  O   O6        1.0  0.822387690520884  0.0993147224632196  0.9965514284766259  1.0000
  O   O7        1.0  0.3048810805315707  0.6886572314178816  0.10468282225026115  1.0000
  O   O8        1.0  0.9569266513964463  0.48128022603126785  0.4611413153249089  1.0000
