data_image0
_chemical_formula_structural       Zr4O8
_chemical_formula_sum              "Zr4 O8"
_cell_length_a       5.1539878367877705
_cell_length_b       5.22810872
_cell_length_c       5.329696159145639
_cell_angle_alpha    90.0
_cell_angle_beta     99.43692258379697
_cell_angle_gamma    90.0

_space_group_name_H-M_alt    "P 1"
_space_group_IT_number       1

loop_
  _space_group_symop_operation_xyz
  'x, y, z'

loop_
  _atom_site_type_symbol
  _atom_site_label
  _atom_site_symmetry_multiplicity
  _atom_site_fract_x
  _atom_site_fract_y
  _atom_site_fract_z
  _atom_site_occupancy
  Zr  Zr1       1.0  0.0526996509214932  0.9813983893921279  0.9906861996768672  1.0000
  Zr  Zr2       1.0  0.6522851520202124  0.8728860127120157  0.3278053762770927  1.0000
  Zr  Zr3       1.0  0.7658285148575548  0.2813579878486161  0.8814929977058199  1.0000
  Zr  Zr4       1.0  0.9566356552367514  0.677903926680119  0.7668558300679948  1.0000
  O   O1        1.0  0.449694341294709  0.0780971709002749  0.639061049408113  1.0000
  O   O2        1.0  0.31892682698264707  0.7746172407635017  0.15342341078046107  1.0000
  O   O3        1.0  0.7265847773087497  0.7047934072955906  0.7782806258671506  1.0000
  O   O4        1.0  0.4744436906389229  0.7766526453924669  0.5681601002559464  1.0000
  O   O5        1.0  0.6108155857596707  0.5276294205675702  0.23008038034589617  1.0000
  O   O6        1.0  0.7541892100603897  0.28289547885581534  0.9996072706148782  1.0000
  O   O7        1.0  0.09221636649819054  0.07515798379245897  0.14018005836048886  1.0000
  O   O8        1.0  0.4862539206441987  0.1925517195109876  0.8243126243626817  1.0000
