data_image0
_chemical_formula_structural       Zr4O8
_chemical_formula_sum              "Zr4 O8"
_cell_length_a       5.1539878367877705
_cell_length_b       5.22810872
_cell_length_c       5.329696159145639
_cell_angle_alpha    90.0
_cell_angle_beta     99.43692258379697
_cell_angle_gamma    90.0

_space_group_name_H-M_alt    "P 1"
_space_group_IT_number       1

loop_
  _space_group_symop_operation_xyz
  'x, y, z'

loop_
  _atom_site_type_symbol
  _atom_site_label
  _atom_site_symmetry_multiplicity
  _atom_site_fract_x
  _atom_site_fract_y
  _atom_site_fract_z
  _atom_site_occupancy
  Zr  Zr1       1.0  0.46333133772708024  0.3126846471509772  0.634015793073015  1.0000
  Zr  Zr2       1.0  0.48278671706057885  0.985224489324664  0.07658366165380137  1.0000
  Zr  Zr3       1.0  0.07125292749342016  0.08119527765546408  0.6314037421444496  1.0000
  Zr  Zr4       1.0  0.6915686653125812  0.24847788235010881  0.8552183196794445  1.0000
  O   O1        1.0  0.7276368948165057  0.9897814307716821  0.666626925221065  1.0000
  O   O2        1.0  0.9698602333929216  0.12037134654361381  0.15516422346506076  1.0000
  O   O3        1.0  0.322661314217072  0.5853250354407251  0.9028292922788452  1.0000
  O   O4        1.0  0.9297546723734982  0.9419057606191863  0.2706361363229455  1.0000
  O   O5        1.0  0.8387336319689886  0.7844895874249502  0.4004661783341543  1.0000
  O   O6        1.0  0.8138046118997089  0.3074121967087251  0.46370147208698853  1.0000
  O   O7        1.0  0.26891552440814337  0.20424969716706087  0.6652322008211495  1.0000
  O   O8        1.0  0.12939384312741886  0.7728553436096632  0.430451561368983  1.0000
