data_image0
_chemical_formula_structural       Zr4O8
_chemical_formula_sum              "Zr4 O8"
_cell_length_a       5.1539878367877705
_cell_length_b       5.22810872
_cell_length_c       5.329696159145639
_cell_angle_alpha    90.0
_cell_angle_beta     99.43692258379697
_cell_angle_gamma    90.0

_space_group_name_H-M_alt    "P 1"
_space_group_IT_number       1

loop_
  _space_group_symop_operation_xyz
  'x, y, z'

loop_
  _atom_site_type_symbol
  _atom_site_label
  _atom_site_symmetry_multiplicity
  _atom_site_fract_x
  _atom_site_fract_y
  _atom_site_fract_z
  _atom_site_occupancy
  Zr  Zr1       1.0  0.19213286331948964  0.63102343799968  0.14188457540213584  1.0000
  Zr  Zr2       1.0  0.6135023410332554  0.14682107878921258  0.5876134796355332  1.0000
  Zr  Zr3       1.0  0.2784941399420262  0.7818220654604694  0.5075814256830018  1.0000
  Zr  Zr4       1.0  0.8350994629586204  0.8628702298869437  0.9513574997117544  1.0000
  O   O1        1.0  0.7618858795931978  0.4104913803189909  0.8355580090000654  1.0000
  O   O2        1.0  0.8516203825786626  0.07659283278209283  0.27158787032130494  1.0000
  O   O3        1.0  0.4820316500880155  0.23841871870906295  0.5865720845928877  1.0000
  O   O4        1.0  0.9798279551609763  0.514663789838135  0.10100507235503997  1.0000
  O   O5        1.0  0.08679172920965428  0.785655452043228  0.9034941978959417  1.0000
  O   O6        1.0  0.19748193706163875  0.10491203252801018  0.13816319504422658  1.0000
  O   O7        1.0  0.7969837053973823  0.5237446202052238  0.943623251732653  1.0000
  O   O8        1.0  0.9876669060212908  0.9175261446806573  0.4722985668200945  1.0000
