data_image0
_chemical_formula_structural       Zr4O8
_chemical_formula_sum              "Zr4 O8"
_cell_length_a       5.1539878367877705
_cell_length_b       5.22810872
_cell_length_c       5.329696159145639
_cell_angle_alpha    90.0
_cell_angle_beta     99.43692258379697
_cell_angle_gamma    90.0

_space_group_name_H-M_alt    "P 1"
_space_group_IT_number       1

loop_
  _space_group_symop_operation_xyz
  'x, y, z'

loop_
  _atom_site_type_symbol
  _atom_site_label
  _atom_site_symmetry_multiplicity
  _atom_site_fract_x
  _atom_site_fract_y
  _atom_site_fract_z
  _atom_site_occupancy
  Zr  Zr1       1.0  0.8406957948308467  0.05379134971087396  0.471273069926732  1.0000
  Zr  Zr2       1.0  0.9839006896282623  0.3110598540040108  0.4672556821130627  1.0000
  Zr  Zr3       1.0  0.38682841831691483  0.5907806789902498  0.2802474894739344  1.0000
  Zr  Zr4       1.0  0.7334155897352765  0.6190773221711137  0.120045023396953  1.0000
  O   O1        1.0  0.269716264858225  0.39917928148746995  0.025222644722724397  1.0000
  O   O2        1.0  0.6126026539334364  0.044453432136204896  0.4842283494724242  1.0000
  O   O3        1.0  0.22975153069896148  0.596187534461011  0.07198573453819357  1.0000
  O   O4        1.0  0.4844788672865903  0.3060721982457111  0.805201868252194  1.0000
  O   O5        1.0  0.5499473843793425  0.4656635590558196  0.2872744115948933  1.0000
  O   O6        1.0  0.3055604943492227  0.33174475273809634  0.8001313493385886  1.0000
  O   O7        1.0  0.3709015570809342  0.02820099243324492  0.12401944180584223  1.0000
  O   O8        1.0  0.7259781293877587  0.5495046001693495  0.4251609122222284  1.0000
