data_image0
_chemical_formula_structural       Zr4O8
_chemical_formula_sum              "Zr4 O8"
_cell_length_a       5.1539878367877705
_cell_length_b       5.22810872
_cell_length_c       5.329696159145639
_cell_angle_alpha    90.0
_cell_angle_beta     99.43692258379697
_cell_angle_gamma    90.0

_space_group_name_H-M_alt    "P 1"
_space_group_IT_number       1

loop_
  _space_group_symop_operation_xyz
  'x, y, z'

loop_
  _atom_site_type_symbol
  _atom_site_label
  _atom_site_symmetry_multiplicity
  _atom_site_fract_x
  _atom_site_fract_y
  _atom_site_fract_z
  _atom_site_occupancy
  Zr  Zr1       1.0  0.14415594342324844  0.40723721976948024  0.30728113393537804  1.0000
  Zr  Zr2       1.0  0.48593629508228453  0.17775044110800664  0.5618845234637102  1.0000
  Zr  Zr3       1.0  0.47599458547793994  0.30809881970849046  0.05125384304225411  1.0000
  Zr  Zr4       1.0  0.4769289671301249  0.6116591529760446  0.619725650719227  1.0000
  O   O1        1.0  0.9562826964664222  0.1690955526950364  0.25442933266679635  1.0000
  O   O2        1.0  0.6740725217890349  0.383658871933823  0.5924379789139185  1.0000
  O   O3        1.0  0.8944140201273676  0.6823280638862688  0.7627404493121599  1.0000
  O   O4        1.0  0.32786360926819114  0.37358015939640765  0.46856657214790687  1.0000
  O   O5        1.0  0.5399355434734456  0.9492498315522173  0.9861979935728686  1.0000
  O   O6        1.0  0.8107042529741157  0.32618535905269486  0.9432251676080643  1.0000
  O   O7        1.0  0.013025159129973929  0.1260442190432598  0.3435955009869893  1.0000
  O   O8        1.0  0.22489710199595692  0.02266477638681863  0.7318832711320504  1.0000
