data_image0
_chemical_formula_structural       Zr4O8
_chemical_formula_sum              "Zr4 O8"
_cell_length_a       5.1539878367877705
_cell_length_b       5.22810872
_cell_length_c       5.329696159145639
_cell_angle_alpha    90.0
_cell_angle_beta     99.43692258379697
_cell_angle_gamma    90.0

_space_group_name_H-M_alt    "P 1"
_space_group_IT_number       1

loop_
  _space_group_symop_operation_xyz
  'x, y, z'

loop_
  _atom_site_type_symbol
  _atom_site_label
  _atom_site_symmetry_multiplicity
  _atom_site_fract_x
  _atom_site_fract_y
  _atom_site_fract_z
  _atom_site_occupancy
  Zr  Zr1       1.0  0.4127161363856673  0.6284215651239595  0.991476976271704  1.0000
  Zr  Zr2       1.0  0.3073143163894372  0.8312611580551081  0.4150627576829269  1.0000
  Zr  Zr3       1.0  0.6001716361454257  0.5748292198760714  0.20711517315344175  1.0000
  Zr  Zr4       1.0  0.33619090101927096  0.6582923723405738  0.5686729896805929  1.0000
  O   O1        1.0  0.9058409411574786  0.4951544555231493  0.37976319645997947  1.0000
  O   O2        1.0  0.022573983761925653  0.9826727550460248  0.14172218140120085  1.0000
  O   O3        1.0  0.12066091120570555  0.9657063934981096  0.6013136357007802  1.0000
  O   O4        1.0  0.14651552214692742  0.9645876493377381  0.29529804603867227  1.0000
  O   O5        1.0  0.05496946420754156  0.039162583230698544  0.9982471500271686  1.0000
  O   O6        1.0  0.7446769250140655  0.26241251278340627  0.8756506487082731  1.0000
  O   O7        1.0  0.45097654391656405  0.9251819618649009  0.4103173810567142  1.0000
  O   O8        1.0  0.4961250208634693  0.2487619906069618  0.8563108104831816  1.0000
