data_image0
_chemical_formula_structural       Zr4O8
_chemical_formula_sum              "Zr4 O8"
_cell_length_a       5.1539878367877705
_cell_length_b       5.22810872
_cell_length_c       5.329696159145639
_cell_angle_alpha    90.0
_cell_angle_beta     99.43692258379697
_cell_angle_gamma    90.0

_space_group_name_H-M_alt    "P 1"
_space_group_IT_number       1

loop_
  _space_group_symop_operation_xyz
  'x, y, z'

loop_
  _atom_site_type_symbol
  _atom_site_label
  _atom_site_symmetry_multiplicity
  _atom_site_fract_x
  _atom_site_fract_y
  _atom_site_fract_z
  _atom_site_occupancy
  Zr  Zr1       1.0  0.9724373546708698  0.35718437574178097  0.9379553620138791  1.0000
  Zr  Zr2       1.0  0.4285219561246942  0.31110173098788785  0.3237864871071381  1.0000
  Zr  Zr3       1.0  0.5553644033823919  0.7393442860945978  0.9314689159368488  1.0000
  Zr  Zr4       1.0  0.1559866326502588  0.9561034836666753  0.5843728643047346  1.0000
  O   O1        1.0  0.013779427436304559  0.6503878314045293  0.20944994891333124  1.0000
  O   O2        1.0  0.9267289847273776  0.8677193583973839  0.6558619764950233  1.0000
  O   O3        1.0  0.6061268832156301  0.5370896309193967  0.07763985102369553  1.0000
  O   O4        1.0  0.4860298990159677  0.2344446401701603  0.9737900171164853  1.0000
  O   O5        1.0  0.9791117445414272  0.5782428810325442  0.39929324806049493  1.0000
  O   O6        1.0  0.4650673134376442  0.43070558289413086  0.48541290534750914  1.0000
  O   O7        1.0  0.2639350165976482  0.24025791567620125  0.0642948003071524  1.0000
  O   O8        1.0  0.19695695297563431  0.5574321703150353  0.8652489063806428  1.0000
