data_image0
_chemical_formula_structural       Zr4O8
_chemical_formula_sum              "Zr4 O8"
_cell_length_a       5.1539878367877705
_cell_length_b       5.22810872
_cell_length_c       5.329696159145639
_cell_angle_alpha    90.0
_cell_angle_beta     99.43692258379697
_cell_angle_gamma    90.0

_space_group_name_H-M_alt    "P 1"
_space_group_IT_number       1

loop_
  _space_group_symop_operation_xyz
  'x, y, z'

loop_
  _atom_site_type_symbol
  _atom_site_label
  _atom_site_symmetry_multiplicity
  _atom_site_fract_x
  _atom_site_fract_y
  _atom_site_fract_z
  _atom_site_occupancy
  Zr  Zr1       1.0  0.9372897319566391  0.9405105194397065  0.8010833644848514  1.0000
  Zr  Zr2       1.0  0.8652210541329239  0.09036272299769266  0.9651110151715494  1.0000
  Zr  Zr3       1.0  0.4469405861187874  0.6359832460887975  0.3883089905597682  1.0000
  Zr  Zr4       1.0  0.8288001275259909  0.6667139213644425  0.1150917365732718  1.0000
  O   O1        1.0  0.42152498541596195  0.5271007749117369  0.43743725100458963  1.0000
  O   O2        1.0  0.1770904896601353  0.1030355603538089  0.31147948505913986  1.0000
  O   O3        1.0  0.8601278892539241  0.7136679956236858  0.06491253470936087  1.0000
  O   O4        1.0  0.5318374206850268  0.1454791887032698  0.01630427845907434  1.0000
  O   O5        1.0  0.25110586685100245  0.2955846478827784  0.3281131611415973  1.0000
  O   O6        1.0  0.9947297247935261  0.13773979807392456  0.722853641653769  1.0000
  O   O7        1.0  0.10800825065519959  0.05360374867324652  0.8691770623664858  1.0000
  O   O8        1.0  0.9707478400586957  0.9033538953189009  0.6025934720937691  1.0000
