data_image0
_chemical_formula_structural       Zr4O8
_chemical_formula_sum              "Zr4 O8"
_cell_length_a       5.1539878367877705
_cell_length_b       5.22810872
_cell_length_c       5.329696159145639
_cell_angle_alpha    90.0
_cell_angle_beta     99.43692258379697
_cell_angle_gamma    90.0

_space_group_name_H-M_alt    "P 1"
_space_group_IT_number       1

loop_
  _space_group_symop_operation_xyz
  'x, y, z'

loop_
  _atom_site_type_symbol
  _atom_site_label
  _atom_site_symmetry_multiplicity
  _atom_site_fract_x
  _atom_site_fract_y
  _atom_site_fract_z
  _atom_site_occupancy
  Zr  Zr1       1.0  0.33924508108024565  0.19340271179586765  0.12036778624336364  1.0000
  Zr  Zr2       1.0  0.8399231886162664  0.8319586225667734  0.7395937364865193  1.0000
  Zr  Zr3       1.0  0.23999648997163248  0.45927744007813054  0.6432036899957918  1.0000
  Zr  Zr4       1.0  0.7384378313967432  0.1730026944668337  0.6672332321255645  1.0000
  O   O1        1.0  0.9114878560760813  0.5976866751489185  0.20717563088237512  1.0000
  O   O2        1.0  0.317361702936505  0.699515056845744  0.5634477670529012  1.0000
  O   O3        1.0  0.182465321340338  0.199304857395056  0.37074960054821915  1.0000
  O   O4        1.0  0.6398927345122658  0.3144005913842598  0.584075712923358  1.0000
  O   O5        1.0  0.024174733596552755  0.2627143021013367  0.7676418992481984  1.0000
  O   O6        1.0  0.08286567899840788  0.8805456253657127  0.34419416545733394  1.0000
  O   O7        1.0  0.35505257003364976  0.7217323882376725  0.23176562588259486  1.0000
  O   O8        1.0  0.6716165242527161  0.4017057080330311  0.6667697783023723  1.0000
