data_image0
_chemical_formula_structural       Zr4O8
_chemical_formula_sum              "Zr4 O8"
_cell_length_a       5.1539878367877705
_cell_length_b       5.22810872
_cell_length_c       5.329696159145639
_cell_angle_alpha    90.0
_cell_angle_beta     99.43692258379697
_cell_angle_gamma    90.0

_space_group_name_H-M_alt    "P 1"
_space_group_IT_number       1

loop_
  _space_group_symop_operation_xyz
  'x, y, z'

loop_
  _atom_site_type_symbol
  _atom_site_label
  _atom_site_symmetry_multiplicity
  _atom_site_fract_x
  _atom_site_fract_y
  _atom_site_fract_z
  _atom_site_occupancy
  Zr  Zr1       1.0  0.6685383551584323  0.06970707622670425  0.9303064726547845  1.0000
  Zr  Zr2       1.0  0.48211097379393664  0.8436903533524456  0.7498354776517671  1.0000
  Zr  Zr3       1.0  0.18870377707038433  0.7163635579744785  0.5387505291659802  1.0000
  Zr  Zr4       1.0  0.9076739637722093  0.6629094948271437  0.9709812427836013  1.0000
  O   O1        1.0  0.08138024477134209  0.8632507470081237  0.03690843722598913  1.0000
  O   O2        1.0  0.43250795588562596  0.9799699855155097  0.1301709673193301  1.0000
  O   O3        1.0  0.5693758119327015  0.5561005221022697  0.8519206690822791  1.0000
  O   O4        1.0  0.12126745234035496  0.10987658929967381  0.2957396123095748  1.0000
  O   O5        1.0  0.2851330307737605  0.5279347352004677  0.8858090085736343  1.0000
  O   O6        1.0  0.42904206281002644  0.1945916173592721  0.27198785367921385  1.0000
  O   O7        1.0  0.767436679711885  0.7767956014288631  0.7297555872901569  1.0000
  O   O8        1.0  0.5055597314300471  0.33379818593590294  0.08322247119868464  1.0000
