data_image0
_chemical_formula_structural       Zr4O8
_chemical_formula_sum              "Zr4 O8"
_cell_length_a       5.1539878367877705
_cell_length_b       5.22810872
_cell_length_c       5.329696159145639
_cell_angle_alpha    90.0
_cell_angle_beta     99.43692258379697
_cell_angle_gamma    90.0

_space_group_name_H-M_alt    "P 1"
_space_group_IT_number       1

loop_
  _space_group_symop_operation_xyz
  'x, y, z'

loop_
  _atom_site_type_symbol
  _atom_site_label
  _atom_site_symmetry_multiplicity
  _atom_site_fract_x
  _atom_site_fract_y
  _atom_site_fract_z
  _atom_site_occupancy
  Zr  Zr1       1.0  0.8772100675220398  0.6304687265313866  0.681682848022346  1.0000
  Zr  Zr2       1.0  0.39204178355623753  0.9566970019099426  0.23092297130239503  1.0000
  Zr  Zr3       1.0  0.7805346381467118  0.7659422483583427  0.07449170981063347  1.0000
  Zr  Zr4       1.0  0.8940687779168048  0.218772852047171  0.6757828197722304  1.0000
  O   O1        1.0  0.6284992908310869  0.6860447680579114  0.1727196182449724  1.0000
  O   O2        1.0  0.43336734741214933  0.07413959138471427  0.9298910447166833  1.0000
  O   O3        1.0  0.9065256432887976  0.003750864753975236  0.2475261678903955  1.0000
  O   O4        1.0  0.6499032985175504  0.1693001622542245  0.9938693214959562  1.0000
  O   O5        1.0  0.16569607115505747  0.6627967893764364  0.14496171878644049  1.0000
  O   O6        1.0  0.28040780444863955  0.7783312910723836  0.8869634396914527  1.0000
  O   O7        1.0  0.0735820228505979  0.3937087620474031  0.17529585076617593  1.0000
  O   O8        1.0  0.9735196019500236  0.9532737218908558  0.16837593337648116  1.0000
