data_image0
_chemical_formula_structural       Zr4O8
_chemical_formula_sum              "Zr4 O8"
_cell_length_a       5.1539878367877705
_cell_length_b       5.22810872
_cell_length_c       5.329696159145639
_cell_angle_alpha    90.0
_cell_angle_beta     99.43692258379697
_cell_angle_gamma    90.0

_space_group_name_H-M_alt    "P 1"
_space_group_IT_number       1

loop_
  _space_group_symop_operation_xyz
  'x, y, z'

loop_
  _atom_site_type_symbol
  _atom_site_label
  _atom_site_symmetry_multiplicity
  _atom_site_fract_x
  _atom_site_fract_y
  _atom_site_fract_z
  _atom_site_occupancy
  Zr  Zr1       1.0  0.10246840760815523  0.36658648037043484  0.7409997722244803  1.0000
  Zr  Zr2       1.0  0.8884797726428371  0.036809046861590033  0.45365264305432973  1.0000
  Zr  Zr3       1.0  0.8575153401461444  0.3895493132157615  0.5079894958745808  1.0000
  Zr  Zr4       1.0  0.8285406836423141  0.3475648181003663  0.5621082485867497  1.0000
  O   O1        1.0  0.027437553529416903  0.8615545386646204  0.8577697480330677  1.0000
  O   O2        1.0  0.43912223092329583  0.4586064827755365  0.26068324442146107  1.0000
  O   O3        1.0  0.2840231325152516  0.11591924239795759  0.0648807704125467  1.0000
  O   O4        1.0  0.632525022694777  0.4494491370743301  0.7816403941537651  1.0000
  O   O5        1.0  0.5807206125218318  0.8709078179341958  0.06801782079553931  1.0000
  O   O6        1.0  0.22097081031578014  0.4525788960997801  0.5971598318886526  1.0000
  O   O7        1.0  0.6700773015455006  0.29555188711007574  0.5844971388346387  1.0000
  O   O8        1.0  0.21447528655294068  0.0293356829263125  0.7444218663503577  1.0000
