data_image0
_chemical_formula_structural       Zr4O8
_chemical_formula_sum              "Zr4 O8"
_cell_length_a       5.1539878367877705
_cell_length_b       5.22810872
_cell_length_c       5.329696159145639
_cell_angle_alpha    90.0
_cell_angle_beta     99.43692258379697
_cell_angle_gamma    90.0

_space_group_name_H-M_alt    "P 1"
_space_group_IT_number       1

loop_
  _space_group_symop_operation_xyz
  'x, y, z'

loop_
  _atom_site_type_symbol
  _atom_site_label
  _atom_site_symmetry_multiplicity
  _atom_site_fract_x
  _atom_site_fract_y
  _atom_site_fract_z
  _atom_site_occupancy
  Zr  Zr1       1.0  0.17296640310669265  0.563690354401956  0.06888947560220515  1.0000
  Zr  Zr2       1.0  0.1938023486369822  0.22853811938446533  0.6781543485679067  1.0000
  Zr  Zr3       1.0  0.35696238968880634  0.9316502541610445  0.8060885668621136  1.0000
  Zr  Zr4       1.0  0.9408107671933248  0.6825682550736918  0.634297210008981  1.0000
  O   O1        1.0  0.9441558457681509  0.8897956222298298  0.15508104371236442  1.0000
  O   O2        1.0  0.9646924669552064  0.6311523748072716  0.7589446158687103  1.0000
  O   O3        1.0  0.8729341860745148  0.6794412754118397  0.48844615913061595  1.0000
  O   O4        1.0  0.8647030212684532  0.0010035023089027817  0.5232874937111944  1.0000
  O   O5        1.0  0.06121634991657032  0.589184512285609  0.6646174586720448  1.0000
  O   O6        1.0  0.5956709981420616  0.8503381621625365  0.475433554386381  1.0000
  O   O7        1.0  0.34791409242594185  0.565864817962968  0.5862419971385044  1.0000
  O   O8        1.0  0.23500731822980114  0.31760761185213227  0.45093965823925686  1.0000
