data_image0
_chemical_formula_structural       Zr4O8
_chemical_formula_sum              "Zr4 O8"
_cell_length_a       5.1539878367877705
_cell_length_b       5.22810872
_cell_length_c       5.329696159145639
_cell_angle_alpha    90.0
_cell_angle_beta     99.43692258379697
_cell_angle_gamma    90.0

_space_group_name_H-M_alt    "P 1"
_space_group_IT_number       1

loop_
  _space_group_symop_operation_xyz
  'x, y, z'

loop_
  _atom_site_type_symbol
  _atom_site_label
  _atom_site_symmetry_multiplicity
  _atom_site_fract_x
  _atom_site_fract_y
  _atom_site_fract_z
  _atom_site_occupancy
  Zr  Zr1       1.0  0.881819297461969  0.8893434906997371  0.07739169353127195  1.0000
  Zr  Zr2       1.0  0.9364489193379768  0.3227893454514472  0.2637391962199924  1.0000
  Zr  Zr3       1.0  0.6888149395595686  0.9971674281115859  0.7449556774418085  1.0000
  Zr  Zr4       1.0  0.7866052133965846  0.3665302630235203  0.7833230144787546  1.0000
  O   O1        1.0  0.184910259339226  0.7726362233499948  0.6948511217972495  1.0000
  O   O2        1.0  0.9514137130890472  0.3173768087718365  0.7372983532909867  1.0000
  O   O3        1.0  0.07402139125187923  0.13496347455893476  0.3692582701819651  1.0000
  O   O4        1.0  0.2605933266570162  0.24023465136281752  0.7334566291522409  1.0000
  O   O5        1.0  0.8453986762887442  0.9262840173248357  0.29013954355329474  1.0000
  O   O6        1.0  0.8220073890892579  0.15459959033076132  0.02236005199642399  1.0000
  O   O7        1.0  0.4693145162489838  0.43475865094572086  0.9488507874652612  1.0000
  O   O8        1.0  0.6553592450974275  0.23006535993939536  0.747283896239324  1.0000
