data_image0
_chemical_formula_structural       Zr4O8
_chemical_formula_sum              "Zr4 O8"
_cell_length_a       5.1539878367877705
_cell_length_b       5.22810872
_cell_length_c       5.329696159145639
_cell_angle_alpha    90.0
_cell_angle_beta     99.43692258379697
_cell_angle_gamma    90.0

_space_group_name_H-M_alt    "P 1"
_space_group_IT_number       1

loop_
  _space_group_symop_operation_xyz
  'x, y, z'

loop_
  _atom_site_type_symbol
  _atom_site_label
  _atom_site_symmetry_multiplicity
  _atom_site_fract_x
  _atom_site_fract_y
  _atom_site_fract_z
  _atom_site_occupancy
  Zr  Zr1       1.0  0.5266371427716265  0.4779918388168465  0.6672370128749634  1.0000
  Zr  Zr2       1.0  0.5364605227168155  0.7113107833248455  0.5174270015943963  1.0000
  Zr  Zr3       1.0  0.2570414766214345  0.10219058999962627  0.3812590041448658  1.0000
  Zr  Zr4       1.0  0.6178707003126325  0.8257994633383081  0.09730455090693013  1.0000
  O   O1        1.0  0.4948632036847904  0.6931008063059174  0.422142979231634  1.0000
  O   O2        1.0  0.5761926606414463  0.6710487345324196  0.8320929469160383  1.0000
  O   O3        1.0  0.1543529402160857  0.7051178532441256  0.5260520377009428  1.0000
  O   O4        1.0  0.46562810328670245  0.4509791184359031  0.9380134603243206  1.0000
  O   O5        1.0  0.0033395197033596613  0.8469964417564597  0.003592571376209719  1.0000
  O   O6        1.0  0.8050620298143656  0.8344928882288443  0.6112498544628159  1.0000
  O   O7        1.0  0.5288584372282292  0.05325324269283094  0.4363045974818256  1.0000
  O   O8        1.0  0.4815581820050987  0.023720707144342157  0.12954958556581442  1.0000
