data_image0
_chemical_formula_structural       Zr4O8
_chemical_formula_sum              "Zr4 O8"
_cell_length_a       5.1539878367877705
_cell_length_b       5.22810872
_cell_length_c       5.329696159145639
_cell_angle_alpha    90.0
_cell_angle_beta     99.43692258379697
_cell_angle_gamma    90.0

_space_group_name_H-M_alt    "P 1"
_space_group_IT_number       1

loop_
  _space_group_symop_operation_xyz
  'x, y, z'

loop_
  _atom_site_type_symbol
  _atom_site_label
  _atom_site_symmetry_multiplicity
  _atom_site_fract_x
  _atom_site_fract_y
  _atom_site_fract_z
  _atom_site_occupancy
  Zr  Zr1       1.0  0.19997386077890233  0.8296094779847678  0.8775989698732563  1.0000
  Zr  Zr2       1.0  0.0358555855344882  0.550394437875898  0.26471578150578523  1.0000
  Zr  Zr3       1.0  0.09652265287384276  0.9195707719457182  0.5116822488767259  1.0000
  Zr  Zr4       1.0  0.6410680025391535  0.9486176768529466  0.5717149956534264  1.0000
  O   O1        1.0  0.7591957766973749  0.6716678328268617  0.6885806799927963  1.0000
  O   O2        1.0  0.8140552894849389  0.7217169996085104  0.4731894804709431  1.0000
  O   O3        1.0  0.3923926865049623  0.7909455226067266  0.2740333807364692  1.0000
  O   O4        1.0  0.07828102201679243  0.5722917594192651  0.3985942439170316  1.0000
  O   O5        1.0  0.786667434464988  0.7770685328920379  0.304859689587909  1.0000
  O   O6        1.0  0.2804036940763268  0.2105785737381467  0.6931539257643804  1.0000
  O   O7        1.0  0.7611523762541772  0.5164747238737863  0.514454795608394  1.0000
  O   O8        1.0  0.9999755152226091  0.5714767820261244  0.9522316359537939  1.0000
