data_image0
_chemical_formula_structural       Zr4O8
_chemical_formula_sum              "Zr4 O8"
_cell_length_a       5.1539878367877705
_cell_length_b       5.22810872
_cell_length_c       5.329696159145639
_cell_angle_alpha    90.0
_cell_angle_beta     99.43692258379697
_cell_angle_gamma    90.0

_space_group_name_H-M_alt    "P 1"
_space_group_IT_number       1

loop_
  _space_group_symop_operation_xyz
  'x, y, z'

loop_
  _atom_site_type_symbol
  _atom_site_label
  _atom_site_symmetry_multiplicity
  _atom_site_fract_x
  _atom_site_fract_y
  _atom_site_fract_z
  _atom_site_occupancy
  Zr  Zr1       1.0  0.004960714069916605  0.8282139614483732  0.7157186643611713  1.0000
  Zr  Zr2       1.0  0.9211397968957034  0.9876628573970931  0.13026506533250704  1.0000
  Zr  Zr3       1.0  0.7347882313826464  0.33072688710077003  0.6728392359228084  1.0000
  Zr  Zr4       1.0  0.035107463529117755  0.00733602984336601  0.6763276602594637  1.0000
  O   O1        1.0  0.30472595839084815  0.5014007635965747  0.21439568619648774  1.0000
  O   O2        1.0  0.33786911618734905  0.7024781328725567  0.3364108516554474  1.0000
  O   O3        1.0  0.2666447242511225  0.8202771529165815  0.07145129939888584  1.0000
  O   O4        1.0  0.4738449505855229  0.022316484503065226  0.9253062852565463  1.0000
  O   O5        1.0  0.02306280341749556  0.6630555978814741  0.1904158164191614  1.0000
  O   O6        1.0  0.18912521161288964  0.005442930262290702  0.8256574909865328  1.0000
  O   O7        1.0  0.5230829684714067  0.17734069539059227  0.721752288357699  1.0000
  O   O8        1.0  0.09469464446532427  0.4509836959005512  0.9059334406006512  1.0000
