data_image0
_chemical_formula_structural       Zr4O8
_chemical_formula_sum              "Zr4 O8"
_cell_length_a       5.1539878367877705
_cell_length_b       5.22810872
_cell_length_c       5.329696159145639
_cell_angle_alpha    90.0
_cell_angle_beta     99.43692258379697
_cell_angle_gamma    90.0

_space_group_name_H-M_alt    "P 1"
_space_group_IT_number       1

loop_
  _space_group_symop_operation_xyz
  'x, y, z'

loop_
  _atom_site_type_symbol
  _atom_site_label
  _atom_site_symmetry_multiplicity
  _atom_site_fract_x
  _atom_site_fract_y
  _atom_site_fract_z
  _atom_site_occupancy
  Zr  Zr1       1.0  0.696151089316766  0.6881770602003758  0.3643542664258117  1.0000
  Zr  Zr2       1.0  0.14492487311906288  0.8333278299111484  0.8768009973298687  1.0000
  Zr  Zr3       1.0  0.09134172539184249  0.2984105148730347  0.12019675206754954  1.0000
  Zr  Zr4       1.0  0.44047603426322807  0.7073142948850153  0.10859806998416488  1.0000
  O   O1        1.0  0.4496746753540748  0.34463966407076185  0.18273488901169443  1.0000
  O   O2        1.0  0.8655495979042707  0.9427040392630204  0.1792101137656532  1.0000
  O   O3        1.0  0.9570989397936733  0.7056733103234833  0.6388463215421147  1.0000
  O   O4        1.0  0.29590369915646164  0.6049825091492611  0.6266828525172041  1.0000
  O   O5        1.0  0.8589149316973224  0.6769522660371425  0.4061089922603145  1.0000
  O   O6        1.0  0.5609140184621921  0.782113629141179  0.13360228855633594  1.0000
  O   O7        1.0  0.02447416372877953  0.6330023600424894  0.879003639072252  1.0000
  O   O8        1.0  0.3377928300860127  0.6668305598775106  0.4275265148424605  1.0000
