data_image0
_chemical_formula_structural       Zr4O8
_chemical_formula_sum              "Zr4 O8"
_cell_length_a       5.1539878367877705
_cell_length_b       5.22810872
_cell_length_c       5.329696159145639
_cell_angle_alpha    90.0
_cell_angle_beta     99.43692258379697
_cell_angle_gamma    90.0

_space_group_name_H-M_alt    "P 1"
_space_group_IT_number       1

loop_
  _space_group_symop_operation_xyz
  'x, y, z'

loop_
  _atom_site_type_symbol
  _atom_site_label
  _atom_site_symmetry_multiplicity
  _atom_site_fract_x
  _atom_site_fract_y
  _atom_site_fract_z
  _atom_site_occupancy
  Zr  Zr1       1.0  0.060595284543589756  0.8893915541779549  0.7994285963418477  1.0000
  Zr  Zr2       1.0  0.008601138865751423  0.8905666626476849  0.6493907985485663  1.0000
  Zr  Zr3       1.0  0.9778310717377199  0.9178062497378168  0.5908291490975977  1.0000
  Zr  Zr4       1.0  0.9828216449569815  0.13355816505264695  0.7551870252560082  1.0000
  O   O1        1.0  0.6554993173099462  0.8911865033395614  0.5650245526277153  1.0000
  O   O2        1.0  0.5494922270579607  0.1824309145415839  0.7250569152684534  1.0000
  O   O3        1.0  0.6515539128057668  0.468171631777885  0.127201996821956  1.0000
  O   O4        1.0  0.405174218820445  0.1117441101981399  0.638900013982223  1.0000
  O   O5        1.0  0.16039782062900088  0.41409389162231136  0.22644065904706778  1.0000
  O   O6        1.0  0.3714748443318001  0.5280995864222717  0.6609139097239556  1.0000
  O   O7        1.0  0.495970173593129  0.3684021442743397  0.7180484869388355  1.0000
  O   O8        1.0  0.6545521703723747  0.28496713916047156  0.07242805923212359  1.0000
