data_image0
_chemical_formula_structural       Zr4O8
_chemical_formula_sum              "Zr4 O8"
_cell_length_a       5.1539878367877705
_cell_length_b       5.22810872
_cell_length_c       5.329696159145639
_cell_angle_alpha    90.0
_cell_angle_beta     99.43692258379697
_cell_angle_gamma    90.0

_space_group_name_H-M_alt    "P 1"
_space_group_IT_number       1

loop_
  _space_group_symop_operation_xyz
  'x, y, z'

loop_
  _atom_site_type_symbol
  _atom_site_label
  _atom_site_symmetry_multiplicity
  _atom_site_fract_x
  _atom_site_fract_y
  _atom_site_fract_z
  _atom_site_occupancy
  Zr  Zr1       1.0  0.3105585465029659  0.776142819101068  0.4791011890114729  1.0000
  Zr  Zr2       1.0  0.8593692874792609  0.5867297946853363  0.4910727374692936  1.0000
  Zr  Zr3       1.0  0.8488332210942415  0.7982358524045202  0.1844212681879167  1.0000
  Zr  Zr4       1.0  0.4527673930296332  0.39967660177144015  0.1323438118689868  1.0000
  O   O1        1.0  0.037563326263224894  0.449923741078905  0.10565592114984668  1.0000
  O   O2        1.0  0.49892229317452363  0.25770801425675716  0.1954263006130761  1.0000
  O   O3        1.0  0.8325381027575114  0.22954748609556042  0.5772423093798373  1.0000
  O   O4        1.0  0.3789121061353917  0.3169245306172739  0.5529463524201335  1.0000
  O   O5        1.0  0.5758422914595132  0.7605378847678121  0.1785154224665142  1.0000
  O   O6        1.0  0.298822160823752  0.5293705395646278  0.6884673380852158  1.0000
  O   O7        1.0  0.5791301675537657  0.6038727953400258  0.6039693501114698  1.0000
  O   O8        1.0  0.8546853217792325  0.6184093263075141  0.8197801570616274  1.0000
