data_image0
_chemical_formula_structural       Zr4O8
_chemical_formula_sum              "Zr4 O8"
_cell_length_a       5.1539878367877705
_cell_length_b       5.22810872
_cell_length_c       5.329696159145639
_cell_angle_alpha    90.0
_cell_angle_beta     99.43692258379697
_cell_angle_gamma    90.0

_space_group_name_H-M_alt    "P 1"
_space_group_IT_number       1

loop_
  _space_group_symop_operation_xyz
  'x, y, z'

loop_
  _atom_site_type_symbol
  _atom_site_label
  _atom_site_symmetry_multiplicity
  _atom_site_fract_x
  _atom_site_fract_y
  _atom_site_fract_z
  _atom_site_occupancy
  Zr  Zr1       1.0  0.3754355253675863  0.3232244483535034  0.6367248358419868  1.0000
  Zr  Zr2       1.0  0.3276271951059435  0.027658475895947277  0.038270683255611004  1.0000
  Zr  Zr3       1.0  0.24980249847989455  0.5529514284473973  0.02774225532228025  1.0000
  Zr  Zr4       1.0  0.6562168773214183  0.8826005779597157  0.16938672005148392  1.0000
  O   O1        1.0  0.6390866576245209  0.8900531879149938  0.7064156011539993  1.0000
  O   O2        1.0  0.17870074804605007  0.49294663885726564  0.21857918220822725  1.0000
  O   O3        1.0  0.905931315954889  0.3844735931310943  0.2810851931155156  1.0000
  O   O4        1.0  0.8391552890523073  0.7358452638209629  0.12935272299796274  1.0000
  O   O5        1.0  0.9058685664570749  0.8760096452724966  0.6913963656272131  1.0000
  O   O6        1.0  0.8814170452528103  0.8004416041136295  0.6471437659669501  1.0000
  O   O7        1.0  0.043476287715772166  0.5245403053875748  0.9135137076467146  1.0000
  O   O8        1.0  0.03940321563250748  0.23717993545518823  0.7584880657604707  1.0000
