data_image0
_chemical_formula_structural       Zr4O8
_chemical_formula_sum              "Zr4 O8"
_cell_length_a       5.1539878367877705
_cell_length_b       5.22810872
_cell_length_c       5.329696159145639
_cell_angle_alpha    90.0
_cell_angle_beta     99.43692258379697
_cell_angle_gamma    90.0

_space_group_name_H-M_alt    "P 1"
_space_group_IT_number       1

loop_
  _space_group_symop_operation_xyz
  'x, y, z'

loop_
  _atom_site_type_symbol
  _atom_site_label
  _atom_site_symmetry_multiplicity
  _atom_site_fract_x
  _atom_site_fract_y
  _atom_site_fract_z
  _atom_site_occupancy
  Zr  Zr1       1.0  0.8479725968218048  0.38918696574454614  0.07135919478363206  1.0000
  Zr  Zr2       1.0  0.9643492381534902  0.5478228101191398  0.9731619280026096  1.0000
  Zr  Zr3       1.0  0.8050677886717006  0.12394455472729948  0.27078857744630724  1.0000
  Zr  Zr4       1.0  0.2629555633377394  0.4890248063721412  0.5453922223773979  1.0000
  O   O1        1.0  0.4334737599632348  0.9092674390003808  0.8756900626033932  1.0000
  O   O2        1.0  0.2008092312577574  0.459035251858694  0.44353349723828117  1.0000
  O   O3        1.0  0.29428163536218577  0.9001204261583098  0.3135761130312371  1.0000
  O   O4        1.0  0.0670646873017553  0.26316080133853714  0.2811195766985577  1.0000
  O   O5        1.0  0.16764709538280442  0.1077739941960445  0.15383718766948437  1.0000
  O   O6        1.0  0.15079975883086405  0.26862594139444695  0.29131421683431213  1.0000
  O   O7        1.0  0.2011825064363748  0.33945262127802245  0.48569816264480536  1.0000
  O   O8        1.0  0.32790258614462786  0.5308191902862731  0.07292238848676647  1.0000
