data_image0
_chemical_formula_structural       Zr4O8
_chemical_formula_sum              "Zr4 O8"
_cell_length_a       5.1539878367877705
_cell_length_b       5.22810872
_cell_length_c       5.329696159145639
_cell_angle_alpha    90.0
_cell_angle_beta     99.43692258379697
_cell_angle_gamma    90.0

_space_group_name_H-M_alt    "P 1"
_space_group_IT_number       1

loop_
  _space_group_symop_operation_xyz
  'x, y, z'

loop_
  _atom_site_type_symbol
  _atom_site_label
  _atom_site_symmetry_multiplicity
  _atom_site_fract_x
  _atom_site_fract_y
  _atom_site_fract_z
  _atom_site_occupancy
  Zr  Zr1       1.0  0.6195710335127336  0.2580709082195103  0.12799085433174628  1.0000
  Zr  Zr2       1.0  0.8030072973994429  0.3169111113569514  0.9027229562323313  1.0000
  Zr  Zr3       1.0  0.08345337661319085  0.11239992212530492  0.10036170203331984  1.0000
  Zr  Zr4       1.0  0.2692965146426043  0.7604049526655992  0.340989185595185  1.0000
  O   O1        1.0  0.5783974969052821  0.7348042955753371  0.25748952136603265  1.0000
  O   O2        1.0  0.7818832837456267  0.9014118848580397  0.6052425691812378  1.0000
  O   O3        1.0  0.12705602482566114  0.9644473099218143  0.8387271027596768  1.0000
  O   O4        1.0  0.8075250215966818  0.1279112724414957  0.6375388974950198  1.0000
  O   O5        1.0  0.41242723144533056  0.549859941104522  0.359622842280217  1.0000
  O   O6        1.0  0.7880546533394011  0.33087921141133947  0.581335302345825  1.0000
  O   O7        1.0  0.5897476275246518  0.8274236133005237  0.21742963918981673  1.0000
  O   O8        1.0  0.5430117536844357  0.45810505560976367  0.9613142301246023  1.0000
