data_image0
_chemical_formula_structural       Zr4O8
_chemical_formula_sum              "Zr4 O8"
_cell_length_a       5.1539878367877705
_cell_length_b       5.22810872
_cell_length_c       5.329696159145639
_cell_angle_alpha    90.0
_cell_angle_beta     99.43692258379697
_cell_angle_gamma    90.0

_space_group_name_H-M_alt    "P 1"
_space_group_IT_number       1

loop_
  _space_group_symop_operation_xyz
  'x, y, z'

loop_
  _atom_site_type_symbol
  _atom_site_label
  _atom_site_symmetry_multiplicity
  _atom_site_fract_x
  _atom_site_fract_y
  _atom_site_fract_z
  _atom_site_occupancy
  Zr  Zr1       1.0  0.19185386257714754  0.12562752851487957  0.3499045956112852  1.0000
  Zr  Zr2       1.0  0.12038724415082136  0.5876190075502574  0.3207641202832736  1.0000
  Zr  Zr3       1.0  0.10957543939723147  0.2468285350538295  0.728640581930815  1.0000
  Zr  Zr4       1.0  0.8621238487299774  0.36441539942237533  0.9409938856609319  1.0000
  O   O1        1.0  0.018882484626569607  0.6385438609267702  0.8253647416534768  1.0000
  O   O2        1.0  0.6072285508350888  0.5227630952737243  0.4035843933134018  1.0000
  O   O3        1.0  0.47108179283326734  0.8353669327342672  0.12434777679246167  1.0000
  O   O4        1.0  0.45965404220158534  0.786402860397839  0.2582138121486306  1.0000
  O   O5        1.0  0.7040230216680214  0.9328833409960069  0.7326100461144094  1.0000
  O   O6        1.0  0.6701045475199976  0.01432708881304734  0.21702324679976304  1.0000
  O   O7        1.0  0.3016998795992052  0.6133034376815694  0.08503418038992194  1.0000
  O   O8        1.0  0.15290365095502878  0.11221289762560716  0.5648065658425914  1.0000
