data_image0
_chemical_formula_structural       Zr4O8
_chemical_formula_sum              "Zr4 O8"
_cell_length_a       5.1539878367877705
_cell_length_b       5.22810872
_cell_length_c       5.329696159145639
_cell_angle_alpha    90.0
_cell_angle_beta     99.43692258379697
_cell_angle_gamma    90.0

_space_group_name_H-M_alt    "P 1"
_space_group_IT_number       1

loop_
  _space_group_symop_operation_xyz
  'x, y, z'

loop_
  _atom_site_type_symbol
  _atom_site_label
  _atom_site_symmetry_multiplicity
  _atom_site_fract_x
  _atom_site_fract_y
  _atom_site_fract_z
  _atom_site_occupancy
  Zr  Zr1       1.0  0.11015541118846883  0.6674491066840016  0.19897714537356626  1.0000
  Zr  Zr2       1.0  0.018414800918936436  0.6099364749678671  0.9191751695206385  1.0000
  Zr  Zr3       1.0  0.004581586682272487  0.709911438180268  0.04744458063217927  1.0000
  Zr  Zr4       1.0  0.8021250010115049  0.18535212037757276  0.2786941511677936  1.0000
  O   O1        1.0  0.43688765805974583  0.7339365431407572  0.6626104561504711  1.0000
  O   O2        1.0  0.5268946060195479  0.9837626825663923  0.624051993826523  1.0000
  O   O3        1.0  0.7201445720611317  0.7358582769675523  0.12051465015001916  1.0000
  O   O4        1.0  0.14177919520081872  0.4641138506302469  0.7038228731723635  1.0000
  O   O5        1.0  0.2561500329771338  0.25106058494776207  0.3936498192595437  1.0000
  O   O6        1.0  0.07413061145541633  0.30638683607851647  0.0383828164555311  1.0000
  O   O7        1.0  0.9038203512741544  0.39445880876993566  0.7200010307407609  1.0000
  O   O8        1.0  0.6671878108442684  0.9402592084886123  0.5527851652715494  1.0000
