data_image0
_chemical_formula_structural       Zr4O8
_chemical_formula_sum              "Zr4 O8"
_cell_length_a       5.1539878367877705
_cell_length_b       5.22810872
_cell_length_c       5.329696159145639
_cell_angle_alpha    90.0
_cell_angle_beta     99.43692258379697
_cell_angle_gamma    90.0

_space_group_name_H-M_alt    "P 1"
_space_group_IT_number       1

loop_
  _space_group_symop_operation_xyz
  'x, y, z'

loop_
  _atom_site_type_symbol
  _atom_site_label
  _atom_site_symmetry_multiplicity
  _atom_site_fract_x
  _atom_site_fract_y
  _atom_site_fract_z
  _atom_site_occupancy
  Zr  Zr1       1.0  0.7633892129623168  0.5588824000320258  0.2860390767823695  1.0000
  Zr  Zr2       1.0  0.05802192951719576  0.32557243692260585  0.2495531334084422  1.0000
  Zr  Zr3       1.0  0.1794029878621899  0.25390885491125204  0.2549058512470843  1.0000
  Zr  Zr4       1.0  0.6877799812624144  0.013798009283645385  0.4013330131710191  1.0000
  O   O1        1.0  0.5582278036196158  0.40399998522358516  0.19489379802471518  1.0000
  O   O2        1.0  0.24150663641233194  0.25029053526404965  0.9913718106302909  1.0000
  O   O3        1.0  0.021015003340419725  0.015484204837648008  0.5494366426820889  1.0000
  O   O4        1.0  0.45309567299075315  0.6667116300210266  0.8678041739303595  1.0000
  O   O5        1.0  0.7616660606410761  0.4211112675835089  0.476444547329006  1.0000
  O   O6        1.0  0.3320013423473256  0.9564698200157764  0.36462899711015595  1.0000
  O   O7        1.0  0.48325573830916113  0.344631821965784  0.8673874269980679  1.0000
  O   O8        1.0  0.023591359848445848  0.32253940817287585  0.6419271345713256  1.0000
