data_image0
_chemical_formula_structural       Zr4O8
_chemical_formula_sum              "Zr4 O8"
_cell_length_a       5.1539878367877705
_cell_length_b       5.22810872
_cell_length_c       5.329696159145639
_cell_angle_alpha    90.0
_cell_angle_beta     99.43692258379697
_cell_angle_gamma    90.0

_space_group_name_H-M_alt    "P 1"
_space_group_IT_number       1

loop_
  _space_group_symop_operation_xyz
  'x, y, z'

loop_
  _atom_site_type_symbol
  _atom_site_label
  _atom_site_symmetry_multiplicity
  _atom_site_fract_x
  _atom_site_fract_y
  _atom_site_fract_z
  _atom_site_occupancy
  Zr  Zr1       1.0  0.8856828331168722  0.40915585546553146  0.18335962065327038  1.0000
  Zr  Zr2       1.0  0.817129056308822  0.55723859272649  0.6844116185287774  1.0000
  Zr  Zr3       1.0  0.6335235913639741  0.78622175443674  0.44773931011211054  1.0000
  Zr  Zr4       1.0  0.9053038659778814  0.0811481406722736  0.7713832234896252  1.0000
  O   O1        1.0  0.9705982386887229  0.47648066946145207  0.08128086878273066  1.0000
  O   O2        1.0  0.15007570571809126  0.14308399762734325  0.5624784745896427  1.0000
  O   O3        1.0  0.2280479977405534  0.7109322076843725  0.2708167946148201  1.0000
  O   O4        1.0  0.8051417069491613  0.489943780498586  0.5672465917740155  1.0000
  O   O5        1.0  0.5901772709332676  0.5731287492989487  0.4890309662825455  1.0000
  O   O6        1.0  0.8258245612440298  0.4033358932621809  0.23960243013313054  1.0000
  O   O7        1.0  0.7201274935062187  0.23118539627336077  0.6788075413526888  1.0000
  O   O8        1.0  0.26281831469623995  0.2414981543720529  0.39095960221625603  1.0000
