data_image0
_chemical_formula_structural       Zr4O8
_chemical_formula_sum              "Zr4 O8"
_cell_length_a       5.1539878367877705
_cell_length_b       5.22810872
_cell_length_c       5.329696159145639
_cell_angle_alpha    90.0
_cell_angle_beta     99.43692258379697
_cell_angle_gamma    90.0

_space_group_name_H-M_alt    "P 1"
_space_group_IT_number       1

loop_
  _space_group_symop_operation_xyz
  'x, y, z'

loop_
  _atom_site_type_symbol
  _atom_site_label
  _atom_site_symmetry_multiplicity
  _atom_site_fract_x
  _atom_site_fract_y
  _atom_site_fract_z
  _atom_site_occupancy
  Zr  Zr1       1.0  0.23699080514900306  0.25378803005909134  0.8503796542607525  1.0000
  Zr  Zr2       1.0  0.7677505383458687  0.6659727898753651  0.6954513850864048  1.0000
  Zr  Zr3       1.0  0.5795176529343289  0.4329005331988718  0.8789371872935341  1.0000
  Zr  Zr4       1.0  0.9493223835669848  0.9616551484765719  0.5518253129217783  1.0000
  O   O1        1.0  0.17360677844493821  0.7723716083724135  0.7639909068451374  1.0000
  O   O2        1.0  0.6039090578683286  0.7565059537411756  0.8574021594164094  1.0000
  O   O3        1.0  0.39444104860555385  0.11504517633209588  0.8681414551366373  1.0000
  O   O4        1.0  0.7503337506142795  0.2320247562058283  0.349645229675815  1.0000
  O   O5        1.0  0.011995127995387378  0.9038470011138955  0.9440096222235397  1.0000
  O   O6        1.0  0.4266085433468163  0.29373711240720723  0.6611990510639565  1.0000
  O   O7        1.0  0.44127440354530734  0.9905625397292965  0.5965473761932927  1.0000
  O   O8        1.0  0.15055689866198385  0.659383741212217  0.756481656383194  1.0000
