data_image0
_chemical_formula_structural       Zr4O8
_chemical_formula_sum              "Zr4 O8"
_cell_length_a       5.1539878367877705
_cell_length_b       5.22810872
_cell_length_c       5.329696159145639
_cell_angle_alpha    90.0
_cell_angle_beta     99.43692258379697
_cell_angle_gamma    90.0

_space_group_name_H-M_alt    "P 1"
_space_group_IT_number       1

loop_
  _space_group_symop_operation_xyz
  'x, y, z'

loop_
  _atom_site_type_symbol
  _atom_site_label
  _atom_site_symmetry_multiplicity
  _atom_site_fract_x
  _atom_site_fract_y
  _atom_site_fract_z
  _atom_site_occupancy
  Zr  Zr1       1.0  0.06031227675974815  0.5868955417355757  0.8859195791338932  1.0000
  Zr  Zr2       1.0  0.6418515115842496  0.915115094680667  0.2567958569342004  1.0000
  Zr  Zr3       1.0  0.5883615776056104  0.8991139160848123  0.62442072009177  1.0000
  Zr  Zr4       1.0  0.9335089292331658  0.14508973238780776  0.040878666948715114  1.0000
  O   O1        1.0  0.8724738396880696  0.8462915605321584  0.10111444592179808  1.0000
  O   O2        1.0  0.7776783610586229  0.004398600499335714  0.2915391057415335  1.0000
  O   O3        1.0  0.41348615375897363  0.044960886056919946  0.025178345411022818  1.0000
  O   O4        1.0  0.10590097938359122  0.4124596958651585  0.36656771154594625  1.0000
  O   O5        1.0  0.7102795420929722  0.8080095890018733  0.16398298853498972  1.0000
  O   O6        1.0  0.6117806781972206  0.039118314332391435  0.8517564865086449  1.0000
  O   O7        1.0  0.4055286157347844  0.49833434447086944  0.7829505956356542  1.0000
  O   O8        1.0  0.14762440351618267  0.3473672006528865  0.23794442505095859  1.0000
