data_image0
_chemical_formula_structural       Zr4O8
_chemical_formula_sum              "Zr4 O8"
_cell_length_a       5.1539878367877705
_cell_length_b       5.22810872
_cell_length_c       5.329696159145639
_cell_angle_alpha    90.0
_cell_angle_beta     99.43692258379697
_cell_angle_gamma    90.0

_space_group_name_H-M_alt    "P 1"
_space_group_IT_number       1

loop_
  _space_group_symop_operation_xyz
  'x, y, z'

loop_
  _atom_site_type_symbol
  _atom_site_label
  _atom_site_symmetry_multiplicity
  _atom_site_fract_x
  _atom_site_fract_y
  _atom_site_fract_z
  _atom_site_occupancy
  Zr  Zr1       1.0  0.2790693869003249  0.8705518762177498  0.03202057607842512  1.0000
  Zr  Zr2       1.0  0.11076172442810694  0.20329001337035657  0.5738244994455304  1.0000
  Zr  Zr3       1.0  0.21492252879755647  0.8212170111636183  0.5773310172936492  1.0000
  Zr  Zr4       1.0  0.32786709243998935  0.5441051426403849  0.03946597834005061  1.0000
  O   O1        1.0  0.928061692952499  0.19918079156358104  0.08302386459638811  1.0000
  O   O2        1.0  0.3887473836596058  0.23994635064880754  0.14870651661516376  1.0000
  O   O3        1.0  0.3189677271507243  0.9761033768403422  0.8975132343045082  1.0000
  O   O4        1.0  0.6655626351802413  0.551409744732851  0.4800086230202254  1.0000
  O   O5        1.0  0.746097467113854  0.6258022664918741  0.4721200859360337  1.0000
  O   O6        1.0  0.8541804752371647  0.27773971059004054  0.4239187360630652  1.0000
  O   O7        1.0  0.9269259360018793  0.43601288354006673  0.20773748987388885  1.0000
  O   O8        1.0  0.6500938080562175  0.8770985291711328  0.4321427467214516  1.0000
