data_image0
_chemical_formula_structural       Zr4O8
_chemical_formula_sum              "Zr4 O8"
_cell_length_a       5.1539878367877705
_cell_length_b       5.22810872
_cell_length_c       5.329696159145639
_cell_angle_alpha    90.0
_cell_angle_beta     99.43692258379697
_cell_angle_gamma    90.0

_space_group_name_H-M_alt    "P 1"
_space_group_IT_number       1

loop_
  _space_group_symop_operation_xyz
  'x, y, z'

loop_
  _atom_site_type_symbol
  _atom_site_label
  _atom_site_symmetry_multiplicity
  _atom_site_fract_x
  _atom_site_fract_y
  _atom_site_fract_z
  _atom_site_occupancy
  Zr  Zr1       1.0  0.6051336231716604  0.7564962181132149  0.012402030863380986  1.0000
  Zr  Zr2       1.0  0.9210059231279439  0.1567197690157376  0.17645150561908274  1.0000
  Zr  Zr3       1.0  0.20672773157913937  0.6251404800590166  0.46046499217949544  1.0000
  Zr  Zr4       1.0  0.7655655150611289  0.7911714996827861  0.5270845400253137  1.0000
  O   O1        1.0  0.8832178238847312  0.07696615328823952  0.15885461710788817  1.0000
  O   O2        1.0  0.1325389264468413  0.06709206284108404  0.40316033339939494  1.0000
  O   O3        1.0  0.13826469998252122  0.1175890264469821  0.9233927266560222  1.0000
  O   O4        1.0  0.6801933046468385  0.933810630380016  0.805620668335628  1.0000
  O   O5        1.0  0.6797083204862879  0.6364422039351751  0.17836413146055108  1.0000
  O   O6        1.0  0.9052084597007166  0.16565483510653678  0.873181554397993  1.0000
  O   O7        1.0  0.897274293828966  0.1599830844533281  0.6305010382659617  1.0000
  O   O8        1.0  0.969838480048538  0.6887415727302195  0.7062835083111274  1.0000
