data_image0
_chemical_formula_structural       Zr4O8
_chemical_formula_sum              "Zr4 O8"
_cell_length_a       5.1539878367877705
_cell_length_b       5.22810872
_cell_length_c       5.329696159145639
_cell_angle_alpha    90.0
_cell_angle_beta     99.43692258379697
_cell_angle_gamma    90.0

_space_group_name_H-M_alt    "P 1"
_space_group_IT_number       1

loop_
  _space_group_symop_operation_xyz
  'x, y, z'

loop_
  _atom_site_type_symbol
  _atom_site_label
  _atom_site_symmetry_multiplicity
  _atom_site_fract_x
  _atom_site_fract_y
  _atom_site_fract_z
  _atom_site_occupancy
  Zr  Zr1       1.0  0.9205222441725263  0.7892543962382632  0.710827398662822  1.0000
  Zr  Zr2       1.0  0.13866652667512014  0.8203291568463538  0.42102224422065904  1.0000
  Zr  Zr3       1.0  0.10754994818924124  0.43962182309270936  0.6697120325926917  1.0000
  Zr  Zr4       1.0  0.5846959162757379  0.13987317467909577  0.2121420886869707  1.0000
  O   O1        1.0  0.43411503938426677  0.25223609800358204  0.9056976468758755  1.0000
  O   O2        1.0  0.6835004588618787  0.2429344385049177  0.5788221921607324  1.0000
  O   O3        1.0  0.6326869986299073  0.5779873403329105  0.4873207192308744  1.0000
  O   O4        1.0  0.7011784383189171  0.6212204095428708  0.7495232998545518  1.0000
  O   O5        1.0  0.2893290720702808  0.8795460991235586  0.5171369710288984  1.0000
  O   O6        1.0  0.18630405470825906  0.16990904313914257  0.3571738673259155  1.0000
  O   O7        1.0  0.4214629366586209  0.22092057333782478  0.3280740385952541  1.0000
  O   O8        1.0  0.6511199331118931  0.5074659235283505  0.7022694617341187  1.0000
