data_image0
_chemical_formula_structural       Zr4O8
_chemical_formula_sum              "Zr4 O8"
_cell_length_a       5.1539878367877705
_cell_length_b       5.22810872
_cell_length_c       5.329696159145639
_cell_angle_alpha    90.0
_cell_angle_beta     99.43692258379697
_cell_angle_gamma    90.0

_space_group_name_H-M_alt    "P 1"
_space_group_IT_number       1

loop_
  _space_group_symop_operation_xyz
  'x, y, z'

loop_
  _atom_site_type_symbol
  _atom_site_label
  _atom_site_symmetry_multiplicity
  _atom_site_fract_x
  _atom_site_fract_y
  _atom_site_fract_z
  _atom_site_occupancy
  Zr  Zr1       1.0  0.37917751147863044  0.1243992773297311  0.5920334642073721  1.0000
  Zr  Zr2       1.0  0.2535363925437579  0.36109956813419686  0.09841205724285551  1.0000
  Zr  Zr3       1.0  0.6686141247746882  0.8401093702439986  0.513781427651395  1.0000
  Zr  Zr4       1.0  0.10419531289691297  0.36214988076442545  0.6166353751819962  1.0000
  O   O1        1.0  0.5563858079959383  0.5533226337985866  0.573806960659546  1.0000
  O   O2        1.0  0.18562033662483834  0.24015190795533936  0.3470418366984873  1.0000
  O   O3        1.0  0.7450571800686596  0.8483425005021825  0.935359921407759  1.0000
  O   O4        1.0  0.800753321615872  0.8121820111828626  0.8092551291728611  1.0000
  O   O5        1.0  0.7156642424818056  0.42206837891518845  0.029401818971908966  1.0000
  O   O6        1.0  0.007352106490618127  0.8911008843194388  0.6924558427351091  1.0000
  O   O7        1.0  0.4267076682864847  0.8462863018021354  0.8075136726700052  1.0000
  O   O8        1.0  0.5843562967573628  0.6001090990399618  0.048485279629535416  1.0000
