data_image0
_chemical_formula_structural       Zr4O8
_chemical_formula_sum              "Zr4 O8"
_cell_length_a       5.1539878367877705
_cell_length_b       5.22810872
_cell_length_c       5.329696159145639
_cell_angle_alpha    90.0
_cell_angle_beta     99.43692258379697
_cell_angle_gamma    90.0

_space_group_name_H-M_alt    "P 1"
_space_group_IT_number       1

loop_
  _space_group_symop_operation_xyz
  'x, y, z'

loop_
  _atom_site_type_symbol
  _atom_site_label
  _atom_site_symmetry_multiplicity
  _atom_site_fract_x
  _atom_site_fract_y
  _atom_site_fract_z
  _atom_site_occupancy
  Zr  Zr1       1.0  0.08920781336058514  0.6097940730821989  0.6118974153310575  1.0000
  Zr  Zr2       1.0  0.2007619033019985  0.04883093171704722  0.5883470261957808  1.0000
  Zr  Zr3       1.0  0.32146330667942036  0.17279774797508196  0.07860888822066592  1.0000
  Zr  Zr4       1.0  0.54298102799196  0.6477347186670954  0.09852132876949682  1.0000
  O   O1        1.0  0.8461194888598769  0.33294403212611456  0.5348333921897535  1.0000
  O   O2        1.0  0.48880764047473235  0.3703243428501537  0.4879553877300893  1.0000
  O   O3        1.0  0.18108042694196058  0.2799294556681602  0.33601719233224436  1.0000
  O   O4        1.0  0.36666028700915954  0.37761510316402136  0.2220625444209361  1.0000
  O   O5        1.0  0.1129020692206879  0.005296139127924704  0.7786668080967711  1.0000
  O   O6        1.0  0.1652446760764228  0.21988769389923846  0.4890546141432601  1.0000
  O   O7        1.0  0.5898780739150986  0.9150486420374726  0.7912443230531334  1.0000
  O   O8        1.0  0.08506495275693382  0.8683051251663301  0.03708651724421941  1.0000
