data_image0
_chemical_formula_structural       Zr4O8
_chemical_formula_sum              "Zr4 O8"
_cell_length_a       5.1539878367877705
_cell_length_b       5.22810872
_cell_length_c       5.329696159145639
_cell_angle_alpha    90.0
_cell_angle_beta     99.43692258379697
_cell_angle_gamma    90.0

_space_group_name_H-M_alt    "P 1"
_space_group_IT_number       1

loop_
  _space_group_symop_operation_xyz
  'x, y, z'

loop_
  _atom_site_type_symbol
  _atom_site_label
  _atom_site_symmetry_multiplicity
  _atom_site_fract_x
  _atom_site_fract_y
  _atom_site_fract_z
  _atom_site_occupancy
  Zr  Zr1       1.0  0.31888802304342967  0.0741029224696419  0.5920782759943712  1.0000
  Zr  Zr2       1.0  0.7507444685622451  0.253727034850856  0.983973451053346  1.0000
  Zr  Zr3       1.0  0.9161966086346629  0.05667950727624854  0.6646311845018753  1.0000
  Zr  Zr4       1.0  0.8752211434225625  0.9508149677269182  0.6375612365740526  1.0000
  O   O1        1.0  0.5518573978069767  0.531943809226255  0.08170461445543609  1.0000
  O   O2        1.0  0.7201776153027541  0.8964344233328951  0.33007164117315346  1.0000
  O   O3        1.0  0.6203349766262498  0.5717818536053896  0.25677575972725464  1.0000
  O   O4        1.0  0.8103153566411316  0.5047372626774838  0.9594411610365974  1.0000
  O   O5        1.0  0.744594837414386  0.5840193772199633  0.9141065900939407  1.0000
  O   O6        1.0  0.3909303340194228  0.9656079400554045  0.7354179824720148  1.0000
  O   O7        1.0  0.5058599615646786  0.6162997947502684  0.19935093173725704  1.0000
  O   O8        1.0  0.9509012164137474  0.7933933324950928  0.31411178549861196  1.0000
