data_image0
_chemical_formula_structural       Zr4O8
_chemical_formula_sum              "Zr4 O8"
_cell_length_a       5.1539878367877705
_cell_length_b       5.22810872
_cell_length_c       5.329696159145639
_cell_angle_alpha    90.0
_cell_angle_beta     99.43692258379697
_cell_angle_gamma    90.0

_space_group_name_H-M_alt    "P 1"
_space_group_IT_number       1

loop_
  _space_group_symop_operation_xyz
  'x, y, z'

loop_
  _atom_site_type_symbol
  _atom_site_label
  _atom_site_symmetry_multiplicity
  _atom_site_fract_x
  _atom_site_fract_y
  _atom_site_fract_z
  _atom_site_occupancy
  Zr  Zr1       1.0  0.7973986137833577  0.8242715774340255  0.29347607853585345  1.0000
  Zr  Zr2       1.0  0.6760452658244471  0.8337002089747667  0.41103809266019464  1.0000
  Zr  Zr3       1.0  0.2705816450631726  0.7211952065973044  0.8415974981786807  1.0000
  Zr  Zr4       1.0  0.7869592497446782  0.7720311603578995  0.8809504014160918  1.0000
  O   O1        1.0  0.2525709172848529  0.4995310680510343  0.5299356689717984  1.0000
  O   O2        1.0  0.921623915377161  0.7028252112410485  0.88852362606033  1.0000
  O   O3        1.0  0.22250275362462446  0.7564195857036218  0.5609640256953945  1.0000
  O   O4        1.0  0.32250001305295584  0.682960968876845  0.416202812860039  1.0000
  O   O5        1.0  0.44557884886735266  0.5528058842737806  0.8485569777611417  1.0000
  O   O6        1.0  0.24968900480561018  0.3294680027983645  0.8542203223644049  1.0000
  O   O7        1.0  0.7472667337959953  0.0477572830939863  0.8479192696545681  1.0000
  O   O8        1.0  0.879530589610134  0.5455529862104829  0.8833295732998838  1.0000
