data_image0
_chemical_formula_structural       Zr4O8
_chemical_formula_sum              "Zr4 O8"
_cell_length_a       5.1539878367877705
_cell_length_b       5.22810872
_cell_length_c       5.329696159145639
_cell_angle_alpha    90.0
_cell_angle_beta     99.43692258379697
_cell_angle_gamma    90.0

_space_group_name_H-M_alt    "P 1"
_space_group_IT_number       1

loop_
  _space_group_symop_operation_xyz
  'x, y, z'

loop_
  _atom_site_type_symbol
  _atom_site_label
  _atom_site_symmetry_multiplicity
  _atom_site_fract_x
  _atom_site_fract_y
  _atom_site_fract_z
  _atom_site_occupancy
  Zr  Zr1       1.0  0.1364975678097835  0.0028596138594600973  0.32459798091815495  1.0000
  Zr  Zr2       1.0  0.328064838986311  0.6479620195236908  0.5350809313399947  1.0000
  Zr  Zr3       1.0  0.5335238193123808  0.028861351351403997  0.42779092528378726  1.0000
  Zr  Zr4       1.0  0.5122037838611337  0.44301060147795823  0.6904659964676902  1.0000
  O   O1        1.0  0.21414025018056115  0.45352494150006595  0.25983706826281505  1.0000
  O   O2        1.0  0.08187448865584557  0.7380685478207312  0.5139236721963378  1.0000
  O   O3        1.0  0.021477534983674218  0.2141777413452175  0.4357976674177353  1.0000
  O   O4        1.0  0.2717870858310967  0.49484881196519126  0.6938134039260788  1.0000
  O   O5        1.0  0.5807101098844925  0.007982285677393008  0.3529714191623814  1.0000
  O   O6        1.0  0.9134738934084012  0.09987320908002673  0.5004483000174549  1.0000
  O   O7        1.0  0.5538900129897648  0.39657835557702015  0.35414507515815785  1.0000
  O   O8        1.0  0.6101019828434675  0.36733400073868694  0.9832799869968305  1.0000
