data_image0
_chemical_formula_structural       Zr4O8
_chemical_formula_sum              "Zr4 O8"
_cell_length_a       5.1539878367877705
_cell_length_b       5.22810872
_cell_length_c       5.329696159145639
_cell_angle_alpha    90.0
_cell_angle_beta     99.43692258379697
_cell_angle_gamma    90.0

_space_group_name_H-M_alt    "P 1"
_space_group_IT_number       1

loop_
  _space_group_symop_operation_xyz
  'x, y, z'

loop_
  _atom_site_type_symbol
  _atom_site_label
  _atom_site_symmetry_multiplicity
  _atom_site_fract_x
  _atom_site_fract_y
  _atom_site_fract_z
  _atom_site_occupancy
  Zr  Zr1       1.0  0.07957447233756376  0.9224976188202128  0.08596984792605245  1.0000
  Zr  Zr2       1.0  0.7746737784834234  0.7952509653417827  0.26668687736551533  1.0000
  Zr  Zr3       1.0  0.2821927143875751  0.2021257983700906  0.7067083911425065  1.0000
  Zr  Zr4       1.0  0.1088533399855538  0.4351490293195184  0.7748732105969428  1.0000
  O   O1        1.0  0.95261037771159  0.5374326853018587  0.644482418483797  1.0000
  O   O2        1.0  0.41608533492987654  0.09089624467414836  0.9642155926740301  1.0000
  O   O3        1.0  0.7522329622215551  0.4469518609715166  0.0019794099291416956  1.0000
  O   O4        1.0  0.8735576078787943  0.0102351230407558  0.9097657718528538  1.0000
  O   O5        1.0  0.12301553686642741  0.41523625241548245  0.6449998529334806  1.0000
  O   O6        1.0  0.5639594824408896  0.9498285961424244  0.5448837073245434  1.0000
  O   O7        1.0  0.6393152619779667  0.9752956068777188  0.5101453652975465  1.0000
  O   O8        1.0  0.049545263237359194  0.6588219603470193  0.6742247758263318  1.0000
