data_image0
_chemical_formula_structural       Zr4O8
_chemical_formula_sum              "Zr4 O8"
_cell_length_a       5.1539878367877705
_cell_length_b       5.22810872
_cell_length_c       5.329696159145639
_cell_angle_alpha    90.0
_cell_angle_beta     99.43692258379697
_cell_angle_gamma    90.0

_space_group_name_H-M_alt    "P 1"
_space_group_IT_number       1

loop_
  _space_group_symop_operation_xyz
  'x, y, z'

loop_
  _atom_site_type_symbol
  _atom_site_label
  _atom_site_symmetry_multiplicity
  _atom_site_fract_x
  _atom_site_fract_y
  _atom_site_fract_z
  _atom_site_occupancy
  Zr  Zr1       1.0  0.36425282181085317  0.17018839227562665  0.2823274033212275  1.0000
  Zr  Zr2       1.0  0.9441684601309639  0.0475809594697445  0.8845578541019874  1.0000
  Zr  Zr3       1.0  0.811701095931415  0.24577635216123683  0.8502790016345507  1.0000
  Zr  Zr4       1.0  0.7216709378281241  0.1465024820646681  0.20741406478501645  1.0000
  O   O1        1.0  0.8626567981589233  0.8554884617981315  0.5100524477214314  1.0000
  O   O2        1.0  0.18166058879295544  0.2993132068653068  0.9942268454617427  1.0000
  O   O3        1.0  0.5792288888593777  0.8169406506177523  0.2473230712483545  1.0000
  O   O4        1.0  0.002331687300198837  0.2288996278097728  0.2704898444624213  1.0000
  O   O5        1.0  0.0032382754036497374  0.7689876503601951  0.725272431861228  1.0000
  O   O6        1.0  0.03366090548404799  0.13360950622821122  0.5258876248520785  1.0000
  O   O7        1.0  0.4677913900711914  0.34458724318532674  0.7256704934041522  1.0000
  O   O8        1.0  0.9809174389475359  0.1432736563379371  0.38197672619534373  1.0000
