data_image0
_chemical_formula_structural       Zr4O8
_chemical_formula_sum              "Zr4 O8"
_cell_length_a       5.1539878367877705
_cell_length_b       5.22810872
_cell_length_c       5.329696159145639
_cell_angle_alpha    90.0
_cell_angle_beta     99.43692258379697
_cell_angle_gamma    90.0

_space_group_name_H-M_alt    "P 1"
_space_group_IT_number       1

loop_
  _space_group_symop_operation_xyz
  'x, y, z'

loop_
  _atom_site_type_symbol
  _atom_site_label
  _atom_site_symmetry_multiplicity
  _atom_site_fract_x
  _atom_site_fract_y
  _atom_site_fract_z
  _atom_site_occupancy
  Zr  Zr1       1.0  0.2289763217152121  0.9456413674556803  0.6111575405390215  1.0000
  Zr  Zr2       1.0  0.35509472456140756  0.27650805748469764  0.7720639463637848  1.0000
  Zr  Zr3       1.0  0.16664596506108076  0.5165486071492738  0.09356622705854711  1.0000
  Zr  Zr4       1.0  0.9775928038416795  0.5423183371851499  0.6175782909909859  1.0000
  O   O1        1.0  0.3177422209646963  0.4190182979920216  0.4925265237885519  1.0000
  O   O2        1.0  0.01992516393483701  0.27485761649147067  0.11935268753670236  1.0000
  O   O3        1.0  0.6660982349817157  0.5460340425094694  0.5435939047681  1.0000
  O   O4        1.0  0.8112218456929625  0.6447486015883177  0.7629728437345626  1.0000
  O   O5        1.0  0.5482644104963912  0.7411929330161602  0.4919684595072553  1.0000
  O   O6        1.0  0.2972276673263945  0.6110770282655711  0.6811399297512828  1.0000
  O   O7        1.0  0.20602657272976366  0.11918286729125471  0.04655765639664722  1.0000
  O   O8        1.0  0.8596671414537127  0.31703411938470083  0.9832255472802469  1.0000
