data_image0
_chemical_formula_structural       Zr4O8
_chemical_formula_sum              "Zr4 O8"
_cell_length_a       5.1539878367877705
_cell_length_b       5.22810872
_cell_length_c       5.329696159145639
_cell_angle_alpha    90.0
_cell_angle_beta     99.43692258379697
_cell_angle_gamma    90.0

_space_group_name_H-M_alt    "P 1"
_space_group_IT_number       1

loop_
  _space_group_symop_operation_xyz
  'x, y, z'

loop_
  _atom_site_type_symbol
  _atom_site_label
  _atom_site_symmetry_multiplicity
  _atom_site_fract_x
  _atom_site_fract_y
  _atom_site_fract_z
  _atom_site_occupancy
  Zr  Zr1       1.0  0.284317896473945  0.12644365868413132  0.7584564541527392  1.0000
  Zr  Zr2       1.0  0.4597274738781376  0.6817030017453698  0.5365701724392284  1.0000
  Zr  Zr3       1.0  0.601869790153235  0.5439135934502524  0.2800902858182699  1.0000
  Zr  Zr4       1.0  0.6570842520267419  0.3869389929339526  0.6828775650706564  1.0000
  O   O1        1.0  0.1272783438782561  0.36824714213689447  0.11649345559180091  1.0000
  O   O2        1.0  0.6917990565510088  0.37072578134293366  0.15527668482381163  1.0000
  O   O3        1.0  0.1366714104534239  0.7204162227294262  0.1716057773719628  1.0000
  O   O4        1.0  0.3239308798674383  0.9650586756823643  0.5397654888300636  1.0000
  O   O5        1.0  0.49149225716734435  0.9112832192044173  0.4397720691097926  1.0000
  O   O6        1.0  0.0878376799709315  0.7599563717839786  0.9463190121700652  1.0000
  O   O7        1.0  0.11584748301990544  0.5957957873802449  0.05245589694401076  1.0000
  O   O8        1.0  0.5205572764693791  0.4528456787194557  0.15954548081770525  1.0000
