data_image0
_chemical_formula_structural       Zr4O8
_chemical_formula_sum              "Zr4 O8"
_cell_length_a       5.1539878367877705
_cell_length_b       5.22810872
_cell_length_c       5.329696159145639
_cell_angle_alpha    90.0
_cell_angle_beta     99.43692258379697
_cell_angle_gamma    90.0

_space_group_name_H-M_alt    "P 1"
_space_group_IT_number       1

loop_
  _space_group_symop_operation_xyz
  'x, y, z'

loop_
  _atom_site_type_symbol
  _atom_site_label
  _atom_site_symmetry_multiplicity
  _atom_site_fract_x
  _atom_site_fract_y
  _atom_site_fract_z
  _atom_site_occupancy
  Zr  Zr1       1.0  0.08298557220467506  0.4593581342062638  0.7098236117676784  1.0000
  Zr  Zr2       1.0  0.5124337463858986  0.487637075707422  0.39503072473328427  1.0000
  Zr  Zr3       1.0  0.02478356960962813  0.23641763610214994  0.18969653510526463  1.0000
  Zr  Zr4       1.0  0.1997120126640315  0.08217784853852805  0.5645628406039833  1.0000
  O   O1        1.0  0.42510217368754866  0.15276257973370733  0.46367513633283153  1.0000
  O   O2        1.0  0.8714596794902771  0.7021112826970324  0.426452826347417  1.0000
  O   O3        1.0  0.46803265798446336  0.9233558922671641  0.9993054048785783  1.0000
  O   O4        1.0  0.926164102782657  0.5693655197586676  0.6625570794244671  1.0000
  O   O5        1.0  0.8375156418437051  0.46294952328337047  0.5992852586521735  1.0000
  O   O6        1.0  0.5359362750922934  0.5002635440247332  0.2282211186484453  1.0000
  O   O7        1.0  0.5024359534772032  0.631108926672777  0.8415819934458995  1.0000
  O   O8        1.0  0.2739279351980839  0.41264638240656026  0.05099429964119473  1.0000
