data_image0
_chemical_formula_structural       Zr4O8
_chemical_formula_sum              "Zr4 O8"
_cell_length_a       5.1539878367877705
_cell_length_b       5.22810872
_cell_length_c       5.329696159145639
_cell_angle_alpha    90.0
_cell_angle_beta     99.43692258379697
_cell_angle_gamma    90.0

_space_group_name_H-M_alt    "P 1"
_space_group_IT_number       1

loop_
  _space_group_symop_operation_xyz
  'x, y, z'

loop_
  _atom_site_type_symbol
  _atom_site_label
  _atom_site_symmetry_multiplicity
  _atom_site_fract_x
  _atom_site_fract_y
  _atom_site_fract_z
  _atom_site_occupancy
  Zr  Zr1       1.0  0.8600832383988521  0.12218062290518716  0.7444583054562484  1.0000
  Zr  Zr2       1.0  0.2029152829364662  0.3318792416181431  0.09873949087769418  1.0000
  Zr  Zr3       1.0  0.6992886273754184  0.6604421884811973  0.8046317105797893  1.0000
  Zr  Zr4       1.0  0.45720651110186145  0.29274835266603727  0.46522297924599876  1.0000
  O   O1        1.0  0.0105549198893371  0.1715563142773533  0.1768665918331509  1.0000
  O   O2        1.0  0.6432697876217812  0.6484076900999067  0.4208913209731797  1.0000
  O   O3        1.0  0.9906038070946241  0.27887570811475104  0.3178021510276814  1.0000
  O   O4        1.0  0.10282474558456833  0.9612452550427797  0.13486758372218022  1.0000
  O   O5        1.0  0.0196812654341052  0.9681551779242206  0.25077821296884295  1.0000
  O   O6        1.0  0.4348938816526662  0.557603012831585  0.8834377104997264  1.0000
  O   O7        1.0  0.5736074499582715  0.26343473296855535  0.35348931012880236  1.0000
  O   O8        1.0  0.5413155919858177  0.21446183921485584  0.7311023236713723  1.0000
