data_image0
_chemical_formula_structural       Zr4O8
_chemical_formula_sum              "Zr4 O8"
_cell_length_a       5.1539878367877705
_cell_length_b       5.22810872
_cell_length_c       5.329696159145639
_cell_angle_alpha    90.0
_cell_angle_beta     99.43692258379697
_cell_angle_gamma    90.0

_space_group_name_H-M_alt    "P 1"
_space_group_IT_number       1

loop_
  _space_group_symop_operation_xyz
  'x, y, z'

loop_
  _atom_site_type_symbol
  _atom_site_label
  _atom_site_symmetry_multiplicity
  _atom_site_fract_x
  _atom_site_fract_y
  _atom_site_fract_z
  _atom_site_occupancy
  Zr  Zr1       1.0  0.9486832219009429  0.06525593938242125  0.24493605847334976  1.0000
  Zr  Zr2       1.0  0.6410887511097716  0.6617547974485354  0.7617034175133242  1.0000
  Zr  Zr3       1.0  0.047126302818828236  0.6372476838584653  0.08747342551989035  1.0000
  Zr  Zr4       1.0  0.478798834894822  0.1863640786701639  0.18637261946946637  1.0000
  O   O1        1.0  0.5605208951841014  0.8740774877700659  0.7445207919817385  1.0000
  O   O2        1.0  0.0028383942260887807  0.41195973681838893  0.2859052325920146  1.0000
  O   O3        1.0  0.05271051634368007  0.7183363677855574  0.9037580978062358  1.0000
  O   O4        1.0  0.15904663076469205  0.23671382951751951  0.7330877859504739  1.0000
  O   O5        1.0  0.17751812543151502  0.7764557763792794  0.4514151536650459  1.0000
  O   O6        1.0  0.5977828275476753  0.7298789294092316  0.13194703126371943  1.0000
  O   O7        1.0  0.8887083851226887  0.816010274000302  0.3453174196399118  1.0000
  O   O8        1.0  0.5141152393526571  0.3144795677054444  0.848499478884527  1.0000
