data_image0
_chemical_formula_structural       Zr4O8
_chemical_formula_sum              "Zr4 O8"
_cell_length_a       5.1539878367877705
_cell_length_b       5.22810872
_cell_length_c       5.329696159145639
_cell_angle_alpha    90.0
_cell_angle_beta     99.43692258379697
_cell_angle_gamma    90.0

_space_group_name_H-M_alt    "P 1"
_space_group_IT_number       1

loop_
  _space_group_symop_operation_xyz
  'x, y, z'

loop_
  _atom_site_type_symbol
  _atom_site_label
  _atom_site_symmetry_multiplicity
  _atom_site_fract_x
  _atom_site_fract_y
  _atom_site_fract_z
  _atom_site_occupancy
  Zr  Zr1       1.0  0.18555485073462208  0.21898815698190965  0.16245541675491104  1.0000
  Zr  Zr2       1.0  0.4471882520516015  0.9033740612414931  0.299858565834068  1.0000
  Zr  Zr3       1.0  0.8828612378259093  0.9145581670882281  0.8411417849142957  1.0000
  Zr  Zr4       1.0  0.5986717355602531  0.675586938242196  0.6772146278396853  1.0000
  O   O1        1.0  0.9721523136332557  0.09252047084429282  0.396988212060549  1.0000
  O   O2        1.0  0.4628710985133573  0.7334247581831267  0.01904315355862174  1.0000
  O   O3        1.0  0.3915565780378536  0.2426964179367559  0.3203387001130764  1.0000
  O   O4        1.0  0.8303920949916632  0.2707786205846432  0.5231635746741112  1.0000
  O   O5        1.0  0.246610792918176  0.012745267927932069  0.48577373640364563  1.0000
  O   O6        1.0  0.12033644245015296  0.12266423385839431  0.5636958073691751  1.0000
  O   O7        1.0  0.5735764399431754  0.9394242308911829  0.7308956897621854  1.0000
  O   O8        1.0  0.9306209502483185  0.07819503055166166  0.9943537718332622  1.0000
