data_image0
_chemical_formula_structural       Zr4O8
_chemical_formula_sum              "Zr4 O8"
_cell_length_a       5.1539878367877705
_cell_length_b       5.22810872
_cell_length_c       5.329696159145639
_cell_angle_alpha    90.0
_cell_angle_beta     99.43692258379697
_cell_angle_gamma    90.0

_space_group_name_H-M_alt    "P 1"
_space_group_IT_number       1

loop_
  _space_group_symop_operation_xyz
  'x, y, z'

loop_
  _atom_site_type_symbol
  _atom_site_label
  _atom_site_symmetry_multiplicity
  _atom_site_fract_x
  _atom_site_fract_y
  _atom_site_fract_z
  _atom_site_occupancy
  Zr  Zr1       1.0  0.7170842311881618  0.026456558855334933  0.6301925339245527  1.0000
  Zr  Zr2       1.0  0.22757721822475752  0.5150726229490559  0.4069926683675291  1.0000
  Zr  Zr3       1.0  0.19083098675166887  0.8753070970675267  0.09236971425776908  1.0000
  Zr  Zr4       1.0  0.03175901599756692  0.7087734034798476  0.7413279668188477  1.0000
  O   O1        1.0  0.24209690196833122  0.10681631758719234  0.9968109668418457  1.0000
  O   O2        1.0  0.9082623613177301  0.3626225302607988  0.7628164125497907  1.0000
  O   O3        1.0  0.7616718964748515  0.2782670457480112  0.9941075925100975  1.0000
  O   O4        1.0  0.21697240786874872  0.5689837719144446  0.33172763055945076  1.0000
  O   O5        1.0  0.3604573644276128  0.8495206639105062  0.6844937662020065  1.0000
  O   O6        1.0  0.773332562435332  0.20647403906806794  0.31945213558274155  1.0000
  O   O7        1.0  0.7994970814422082  0.896270892446144  0.43653619648773656  1.0000
  O   O8        1.0  0.34838557429543116  0.43571325355142676  0.21652804964108874  1.0000
