data_image0
_chemical_formula_structural       Zr4O8
_chemical_formula_sum              "Zr4 O8"
_cell_length_a       5.1539878367877705
_cell_length_b       5.22810872
_cell_length_c       5.329696159145639
_cell_angle_alpha    90.0
_cell_angle_beta     99.43692258379697
_cell_angle_gamma    90.0

_space_group_name_H-M_alt    "P 1"
_space_group_IT_number       1

loop_
  _space_group_symop_operation_xyz
  'x, y, z'

loop_
  _atom_site_type_symbol
  _atom_site_label
  _atom_site_symmetry_multiplicity
  _atom_site_fract_x
  _atom_site_fract_y
  _atom_site_fract_z
  _atom_site_occupancy
  Zr  Zr1       1.0  0.9001371429909  0.9799651573094632  0.10672308636370387  1.0000
  Zr  Zr2       1.0  0.48247147241047017  0.8764390941528255  0.5014756721985201  1.0000
  Zr  Zr3       1.0  0.803801718724154  0.26980903637523335  0.7480454305997473  1.0000
  Zr  Zr4       1.0  0.32890813811407327  0.4008487972522303  0.9594171704118803  1.0000
  O   O1        1.0  0.3775313831491829  0.2812525420238714  0.6406114709629342  1.0000
  O   O2        1.0  0.7041442089381746  0.017756304129107114  0.058703776063043556  1.0000
  O   O3        1.0  0.46728616823485947  0.9117883809086127  0.5731662694992359  1.0000
  O   O4        1.0  0.5972690542780121  0.07228293905271066  0.9757509311520378  1.0000
  O   O5        1.0  0.22337071130547947  0.46783127727677787  0.4509957448041604  1.0000
  O   O6        1.0  0.7643820835710926  0.23291199937938245  0.35056531568265603  1.0000
  O   O7        1.0  0.05880173261159527  0.39898504497659193  0.8500579989445782  1.0000
  O   O8        1.0  0.7288349123741238  0.6900742623184399  0.8462634184673838  1.0000
