data_image0
_chemical_formula_structural       Zr4O8
_chemical_formula_sum              "Zr4 O8"
_cell_length_a       5.1539878367877705
_cell_length_b       5.22810872
_cell_length_c       5.329696159145639
_cell_angle_alpha    90.0
_cell_angle_beta     99.43692258379697
_cell_angle_gamma    90.0

_space_group_name_H-M_alt    "P 1"
_space_group_IT_number       1

loop_
  _space_group_symop_operation_xyz
  'x, y, z'

loop_
  _atom_site_type_symbol
  _atom_site_label
  _atom_site_symmetry_multiplicity
  _atom_site_fract_x
  _atom_site_fract_y
  _atom_site_fract_z
  _atom_site_occupancy
  Zr  Zr1       1.0  0.26740454044294015  0.3418192475636417  0.6215818840989717  1.0000
  Zr  Zr2       1.0  0.7721890729951184  0.6045643894523991  0.4985305217139313  1.0000
  Zr  Zr3       1.0  0.1838604120150098  0.9554146928300009  0.0022617353308189703  1.0000
  Zr  Zr4       1.0  0.7818037850954465  0.9334121496825318  0.5147282991191556  1.0000
  O   O1        1.0  0.43647089417666507  0.26861581628151043  0.25018946307343626  1.0000
  O   O2        1.0  0.5994127239193978  0.33468065978796524  0.37422566403823865  1.0000
  O   O3        1.0  0.2530740965416951  0.08045009833235994  0.7245684360139641  1.0000
  O   O4        1.0  0.8393540567085296  0.45561431832596766  0.2652836990729064  1.0000
  O   O5        1.0  0.752446982055901  0.7899358426819454  0.6257476841311771  1.0000
  O   O6        1.0  0.3053952465633074  0.2929168945075844  0.4155325756109711  1.0000
  O   O7        1.0  0.9601848590809521  0.050415445536238224  0.4063004788229705  1.0000
  O   O8        1.0  0.7514941746419677  0.6351481620273205  0.1450712050547196  1.0000
