data_image0
_chemical_formula_structural       Zr4O8
_chemical_formula_sum              "Zr4 O8"
_cell_length_a       5.1539878367877705
_cell_length_b       5.22810872
_cell_length_c       5.329696159145639
_cell_angle_alpha    90.0
_cell_angle_beta     99.43692258379697
_cell_angle_gamma    90.0

_space_group_name_H-M_alt    "P 1"
_space_group_IT_number       1

loop_
  _space_group_symop_operation_xyz
  'x, y, z'

loop_
  _atom_site_type_symbol
  _atom_site_label
  _atom_site_symmetry_multiplicity
  _atom_site_fract_x
  _atom_site_fract_y
  _atom_site_fract_z
  _atom_site_occupancy
  Zr  Zr1       1.0  0.7366946784939525  0.8621214173061613  0.46515586931074315  1.0000
  Zr  Zr2       1.0  0.7553918378571769  0.12143925770136832  0.09854789223802918  1.0000
  Zr  Zr3       1.0  0.1763934542385659  0.46561327771425143  0.0038229228136339444  1.0000
  Zr  Zr4       1.0  0.38669123105771885  0.05696285320528194  0.12628527397031597  1.0000
  O   O1        1.0  0.8285235619866818  0.8157945291941644  0.2909446328360952  1.0000
  O   O2        1.0  0.13188657580656482  0.9015435785208643  0.9225285887840142  1.0000
  O   O3        1.0  0.28862810635119196  0.6622282091306255  0.0259333126164627  1.0000
  O   O4        1.0  0.9970520317434257  0.4614732555884622  0.4751647283071456  1.0000
  O   O5        1.0  0.027938898313950133  0.3198665574701476  0.883169119017758  1.0000
  O   O6        1.0  0.32198922360537097  0.260928763682327  0.9801012209836681  1.0000
  O   O7        1.0  0.3158707232599326  0.7427225325841533  0.7518138262402978  1.0000
  O   O8        1.0  0.5685567467345738  0.52114246205673  0.49539633099230773  1.0000
