data_image0
_chemical_formula_structural       Zr4O8
_chemical_formula_sum              "Zr4 O8"
_cell_length_a       5.1539878367877705
_cell_length_b       5.22810872
_cell_length_c       5.329696159145639
_cell_angle_alpha    90.0
_cell_angle_beta     99.43692258379697
_cell_angle_gamma    90.0

_space_group_name_H-M_alt    "P 1"
_space_group_IT_number       1

loop_
  _space_group_symop_operation_xyz
  'x, y, z'

loop_
  _atom_site_type_symbol
  _atom_site_label
  _atom_site_symmetry_multiplicity
  _atom_site_fract_x
  _atom_site_fract_y
  _atom_site_fract_z
  _atom_site_occupancy
  Zr  Zr1       1.0  0.238250303520525  0.4372825879374833  0.8471642289198362  1.0000
  Zr  Zr2       1.0  0.6559089353358694  0.4611920903897051  0.19021943678378594  1.0000
  Zr  Zr3       1.0  0.983870376106859  0.7362058201329581  0.4453998772467349  1.0000
  Zr  Zr4       1.0  0.887407461656472  0.9275674728315044  0.8118878462772514  1.0000
  O   O1        1.0  0.5148839846666462  0.622031594998063  0.16882285544518627  1.0000
  O   O2        1.0  0.6218787430664978  0.5624306763159117  0.13395938581152378  1.0000
  O   O3        1.0  0.9194286026698935  0.8430896941664701  0.9648277707610866  1.0000
  O   O4        1.0  0.5125994474742303  0.665371992115027  0.004639875900284807  1.0000
  O   O5        1.0  0.6531172830645353  0.3687470687461616  0.9788070336564942  1.0000
  O   O6        1.0  0.5163784085970917  0.35101436902826055  0.3045247012868515  1.0000
  O   O7        1.0  0.41831761807293066  0.41409868757497836  0.7398796831740455  1.0000
  O   O8        1.0  0.8824923721544877  0.8829797431868727  0.36876984984429706  1.0000
