data_image0
_chemical_formula_structural       Zr4O8
_chemical_formula_sum              "Zr4 O8"
_cell_length_a       5.1539878367877705
_cell_length_b       5.22810872
_cell_length_c       5.329696159145639
_cell_angle_alpha    90.0
_cell_angle_beta     99.43692258379697
_cell_angle_gamma    90.0

_space_group_name_H-M_alt    "P 1"
_space_group_IT_number       1

loop_
  _space_group_symop_operation_xyz
  'x, y, z'

loop_
  _atom_site_type_symbol
  _atom_site_label
  _atom_site_symmetry_multiplicity
  _atom_site_fract_x
  _atom_site_fract_y
  _atom_site_fract_z
  _atom_site_occupancy
  Zr  Zr1       1.0  0.009847897878660916  0.5005024994501994  0.15323611259928693  1.0000
  Zr  Zr2       1.0  0.3223736177997427  0.3150958933790662  0.17007853179615884  1.0000
  Zr  Zr3       1.0  0.9205678727109956  0.8253560049342461  0.6885913328057445  1.0000
  Zr  Zr4       1.0  0.8333608324330619  0.7395632976615296  0.8413722085005322  1.0000
  O   O1        1.0  0.6119311469072564  0.29955554694467934  0.7329070584555133  1.0000
  O   O2        1.0  0.04554274021097626  0.2055306145982101  0.15060675172382432  1.0000
  O   O3        1.0  0.03231669538888582  0.17946705198558277  0.6441922176636616  1.0000
  O   O4        1.0  0.16766818721280075  0.263284129415986  0.8902158780943878  1.0000
  O   O5        1.0  0.00973682652281127  0.7089930093260932  0.434082512596234  1.0000
  O   O6        1.0  0.8521630927122921  0.04698609027313694  0.7314047182826453  1.0000
  O   O7        1.0  0.24428347424231944  0.6850964744683417  0.6422846941504687  1.0000
  O   O8        1.0  0.6528741697528275  0.050671014064313624  0.602530859492493  1.0000
