data_image0
_chemical_formula_structural       Zr4O8
_chemical_formula_sum              "Zr4 O8"
_cell_length_a       5.1539878367877705
_cell_length_b       5.22810872
_cell_length_c       5.329696159145639
_cell_angle_alpha    90.0
_cell_angle_beta     99.43692258379697
_cell_angle_gamma    90.0

_space_group_name_H-M_alt    "P 1"
_space_group_IT_number       1

loop_
  _space_group_symop_operation_xyz
  'x, y, z'

loop_
  _atom_site_type_symbol
  _atom_site_label
  _atom_site_symmetry_multiplicity
  _atom_site_fract_x
  _atom_site_fract_y
  _atom_site_fract_z
  _atom_site_occupancy
  Zr  Zr1       1.0  0.6419506342597465  0.6332951100158297  0.8137743567565447  1.0000
  Zr  Zr2       1.0  0.5185519104543612  0.48910759860368624  0.03574276883487215  1.0000
  Zr  Zr3       1.0  0.013332067934881842  0.5391777801801858  0.016305555774341278  1.0000
  Zr  Zr4       1.0  0.39626387520311646  0.16263570519631054  0.8418832305824573  1.0000
  O   O1        1.0  0.5264926243947405  0.10966090442755316  0.7067546033473242  1.0000
  O   O2        1.0  0.02701438635379816  0.7909012169468639  0.0389484805824587  1.0000
  O   O3        1.0  0.729077636509718  0.7387091408754749  0.2674043660158727  1.0000
  O   O4        1.0  0.6295302041225401  0.17837285284980453  0.8872067914323338  1.0000
  O   O5        1.0  0.002524831358595492  0.15996726511909998  0.48223204595629454  1.0000
  O   O6        1.0  0.10824170254230125  0.7071974521966098  0.9486220863483332  1.0000
  O   O7        1.0  0.5718928777311305  0.07847318592275343  0.38743244062439075  1.0000
  O   O8        1.0  0.473625865990698  0.7752244495894676  0.04813993055478427  1.0000
