data_image0
_chemical_formula_structural       Zr4O8
_chemical_formula_sum              "Zr4 O8"
_cell_length_a       5.1539878367877705
_cell_length_b       5.22810872
_cell_length_c       5.329696159145639
_cell_angle_alpha    90.0
_cell_angle_beta     99.43692258379697
_cell_angle_gamma    90.0

_space_group_name_H-M_alt    "P 1"
_space_group_IT_number       1

loop_
  _space_group_symop_operation_xyz
  'x, y, z'

loop_
  _atom_site_type_symbol
  _atom_site_label
  _atom_site_symmetry_multiplicity
  _atom_site_fract_x
  _atom_site_fract_y
  _atom_site_fract_z
  _atom_site_occupancy
  Zr  Zr1       1.0  0.5197288621966898  0.760746078621743  0.2639643762178894  1.0000
  Zr  Zr2       1.0  0.2642586808716043  0.9759962784832368  0.34924081476569313  1.0000
  Zr  Zr3       1.0  0.4356932149998247  0.311444664378493  0.7189282256333609  1.0000
  Zr  Zr4       1.0  0.2501780161967546  0.9917377018407585  0.3267705708419779  1.0000
  O   O1        1.0  0.9891684001988068  0.2874909381980153  0.8550562077161565  1.0000
  O   O2        1.0  0.6479812908481417  0.051378974584534554  0.39990750349955473  1.0000
  O   O3        1.0  0.18492643111344442  0.6432292137641697  0.3048133467612679  1.0000
  O   O4        1.0  0.5404311660795411  0.34641468718636936  0.4081030003966646  1.0000
  O   O5        1.0  0.22671643014039233  0.7656331626991442  0.0007637785252736506  1.0000
  O   O6        1.0  0.5867108284205855  0.5984127518957889  0.21085519035958988  1.0000
  O   O7        1.0  0.2318221506829632  0.000967829385896124  0.07364282510535247  1.0000
  O   O8        1.0  0.3190316975119529  0.9083482156232776  0.4888361315495744  1.0000
