data_image0
_chemical_formula_structural       Zr4O8
_chemical_formula_sum              "Zr4 O8"
_cell_length_a       5.1539878367877705
_cell_length_b       5.22810872
_cell_length_c       5.329696159145639
_cell_angle_alpha    90.0
_cell_angle_beta     99.43692258379697
_cell_angle_gamma    90.0

_space_group_name_H-M_alt    "P 1"
_space_group_IT_number       1

loop_
  _space_group_symop_operation_xyz
  'x, y, z'

loop_
  _atom_site_type_symbol
  _atom_site_label
  _atom_site_symmetry_multiplicity
  _atom_site_fract_x
  _atom_site_fract_y
  _atom_site_fract_z
  _atom_site_occupancy
  Zr  Zr1       1.0  0.2740193262811861  0.09309476369637437  0.06130868893837871  1.0000
  Zr  Zr2       1.0  0.8890630373035959  0.500461272782211  0.6356494177818695  1.0000
  Zr  Zr3       1.0  0.61726152515225  0.6221424889171594  0.614213999994746  1.0000
  Zr  Zr4       1.0  0.4605141758457867  0.754530564022466  0.7304288604003144  1.0000
  O   O1        1.0  0.8793447750739674  0.5701684245328309  0.9924427774370805  1.0000
  O   O2        1.0  0.19398234847427887  0.9329249980549008  0.0338858049931261  1.0000
  O   O3        1.0  0.4235963737734991  0.41026662801873215  0.2542447701484427  1.0000
  O   O4        1.0  0.7474181019014594  0.0026104272502571746  0.7740900350871698  1.0000
  O   O5        1.0  0.6489429443283932  0.6964908781438552  0.2795442851067307  1.0000
  O   O6        1.0  0.49429745270587233  0.8855198446960273  0.6235998335163768  1.0000
  O   O7        1.0  0.48393772447648153  0.42281381681215535  0.9313708502067009  1.0000
  O   O8        1.0  0.5812813706691188  0.2036897710454948  0.7641217378288268  1.0000
