data_image0
_chemical_formula_structural       Zr4O8
_chemical_formula_sum              "Zr4 O8"
_cell_length_a       5.1539878367877705
_cell_length_b       5.22810872
_cell_length_c       5.329696159145639
_cell_angle_alpha    90.0
_cell_angle_beta     99.43692258379697
_cell_angle_gamma    90.0

_space_group_name_H-M_alt    "P 1"
_space_group_IT_number       1

loop_
  _space_group_symop_operation_xyz
  'x, y, z'

loop_
  _atom_site_type_symbol
  _atom_site_label
  _atom_site_symmetry_multiplicity
  _atom_site_fract_x
  _atom_site_fract_y
  _atom_site_fract_z
  _atom_site_occupancy
  Zr  Zr1       1.0  0.9777298602068001  0.8081499154604117  0.7918169867632088  1.0000
  Zr  Zr2       1.0  0.4514475019934956  0.15213439721265987  0.45369103595739935  1.0000
  Zr  Zr3       1.0  0.8474703804403205  0.9568198332342881  0.2565008085104735  1.0000
  Zr  Zr4       1.0  0.9370852032430896  0.7338618011189282  0.3197080047929113  1.0000
  O   O1        1.0  0.19025722619079488  0.6305662346530116  0.08205017225378697  1.0000
  O   O2        1.0  0.38056626239205116  0.8001879410028039  0.7282549741690882  1.0000
  O   O3        1.0  0.5438825676965919  0.885861517493284  0.09922433964922206  1.0000
  O   O4        1.0  0.5005874518441171  0.5006432346132925  0.3092114430771531  1.0000
  O   O5        1.0  0.2097879877718043  0.33811807812099914  0.5259377739136468  1.0000
  O   O6        1.0  0.0778000092027824  0.03577522016566803  0.7687713621655341  1.0000
  O   O7        1.0  0.7408581357147028  0.6762024704293683  0.7462372258274712  1.0000
  O   O8        1.0  0.7990806120927587  0.11555689414077985  0.7187007993113328  1.0000
