data_image0
_chemical_formula_structural       Zr4O8
_chemical_formula_sum              "Zr4 O8"
_cell_length_a       5.1539878367877705
_cell_length_b       5.22810872
_cell_length_c       5.329696159145639
_cell_angle_alpha    90.0
_cell_angle_beta     99.43692258379697
_cell_angle_gamma    90.0

_space_group_name_H-M_alt    "P 1"
_space_group_IT_number       1

loop_
  _space_group_symop_operation_xyz
  'x, y, z'

loop_
  _atom_site_type_symbol
  _atom_site_label
  _atom_site_symmetry_multiplicity
  _atom_site_fract_x
  _atom_site_fract_y
  _atom_site_fract_z
  _atom_site_occupancy
  Zr  Zr1       1.0  0.9236009372115657  0.14116681601887748  0.4334281854949378  1.0000
  Zr  Zr2       1.0  0.6930834284014491  0.6915148638210251  0.7421873093799722  1.0000
  Zr  Zr3       1.0  0.9679711087341705  0.6272339251071273  0.6453925611938214  1.0000
  Zr  Zr4       1.0  0.06427219698020314  0.4484751207459041  0.45795030686358373  1.0000
  O   O1        1.0  0.19300603581842068  0.6750360154329265  0.21414704922880645  1.0000
  O   O2        1.0  0.6235303490896813  0.34764166861471324  0.014017739988127581  1.0000
  O   O3        1.0  0.20256330215949747  0.8154258592224544  0.62085241855163  1.0000
  O   O4        1.0  0.9133757410933612  0.41837826464290817  0.42970286162508775  1.0000
  O   O5        1.0  0.5218699824944117  0.26592410532867206  0.8810173883329497  1.0000
  O   O6        1.0  0.33830674488663703  0.43604487192500585  0.8585117939496953  1.0000
  O   O7        1.0  0.4512877576901353  0.8900040586300904  0.9105142956559149  1.0000
  O   O8        1.0  0.08069787349653623  0.011121025915764804  0.47148532542443355  1.0000
