data_image0
_chemical_formula_structural       Zr4O8
_chemical_formula_sum              "Zr4 O8"
_cell_length_a       5.1539878367877705
_cell_length_b       5.22810872
_cell_length_c       5.329696159145639
_cell_angle_alpha    90.0
_cell_angle_beta     99.43692258379697
_cell_angle_gamma    90.0

_space_group_name_H-M_alt    "P 1"
_space_group_IT_number       1

loop_
  _space_group_symop_operation_xyz
  'x, y, z'

loop_
  _atom_site_type_symbol
  _atom_site_label
  _atom_site_symmetry_multiplicity
  _atom_site_fract_x
  _atom_site_fract_y
  _atom_site_fract_z
  _atom_site_occupancy
  Zr  Zr1       1.0  0.03939630509127845  0.8044057508982014  0.763196952009416  1.0000
  Zr  Zr2       1.0  0.7078475043990773  0.8322202179274145  0.14427710727751464  1.0000
  Zr  Zr3       1.0  0.42565297149336256  0.24762362014230277  0.506584413247122  1.0000
  Zr  Zr4       1.0  0.8721603121257715  0.2599851430649771  0.9229370333988207  1.0000
  O   O1        1.0  0.6193894719679065  0.08145333485887818  0.405150704168868  1.0000
  O   O2        1.0  0.9372412168899729  0.9726404979644201  0.2502911273699553  1.0000
  O   O3        1.0  0.34018589858457915  0.11862164425901511  0.33757183457146667  1.0000
  O   O4        1.0  0.5511839063773003  0.5376767611007232  0.41955429798499466  1.0000
  O   O5        1.0  0.40597183308648255  0.8658513176276657  0.07725796030547372  1.0000
  O   O6        1.0  0.2596746576759159  0.6286123720724177  0.35235332275296827  1.0000
  O   O7        1.0  0.9940260590536241  0.6217575550957681  0.08726825792357573  1.0000
  O   O8        1.0  0.47203926797020257  0.05461456029984668  0.4944552681704053  1.0000
