data_image0
_chemical_formula_structural       Zr4O8
_chemical_formula_sum              "Zr4 O8"
_cell_length_a       5.1539878367877705
_cell_length_b       5.22810872
_cell_length_c       5.329696159145639
_cell_angle_alpha    90.0
_cell_angle_beta     99.43692258379697
_cell_angle_gamma    90.0

_space_group_name_H-M_alt    "P 1"
_space_group_IT_number       1

loop_
  _space_group_symop_operation_xyz
  'x, y, z'

loop_
  _atom_site_type_symbol
  _atom_site_label
  _atom_site_symmetry_multiplicity
  _atom_site_fract_x
  _atom_site_fract_y
  _atom_site_fract_z
  _atom_site_occupancy
  Zr  Zr1       1.0  0.40465959237798543  0.3342950642765281  0.7548577416391851  1.0000
  Zr  Zr2       1.0  0.09114163109308038  0.3003367930804086  0.2340330626814593  1.0000
  Zr  Zr3       1.0  0.7647304300047484  0.06081576470622707  0.6077216595175332  1.0000
  Zr  Zr4       1.0  0.38211491518671803  0.09675866699645574  0.5796274311820078  1.0000
  O   O1        1.0  0.8489570841958987  0.317197369029131  0.3866530538972768  1.0000
  O   O2        1.0  0.7732319806682426  0.6412217317446078  0.11794682291575143  1.0000
  O   O3        1.0  0.27334697070371483  0.5014109451781508  0.17071767234544666  1.0000
  O   O4        1.0  0.4266756504142819  0.28014861515921297  0.5792844947330167  1.0000
  O   O5        1.0  0.3286588051600532  0.9717251518864813  0.46515756680545906  1.0000
  O   O6        1.0  0.36372651407131684  0.6766212341844238  0.8813333501695474  1.0000
  O   O7        1.0  0.13915417730418866  0.9141209544610591  0.9440089590731304  1.0000
  O   O8        1.0  0.9372161649542159  0.7672430331251094  0.7204835503441043  1.0000
