data_image0
_chemical_formula_structural       Zr4O8
_chemical_formula_sum              "Zr4 O8"
_cell_length_a       5.1539878367877705
_cell_length_b       5.22810872
_cell_length_c       5.329696159145639
_cell_angle_alpha    90.0
_cell_angle_beta     99.43692258379697
_cell_angle_gamma    90.0

_space_group_name_H-M_alt    "P 1"
_space_group_IT_number       1

loop_
  _space_group_symop_operation_xyz
  'x, y, z'

loop_
  _atom_site_type_symbol
  _atom_site_label
  _atom_site_symmetry_multiplicity
  _atom_site_fract_x
  _atom_site_fract_y
  _atom_site_fract_z
  _atom_site_occupancy
  Zr  Zr1       1.0  0.023884332560445642  0.11591073538614083  0.8755102462908226  1.0000
  Zr  Zr2       1.0  0.9517017710058564  0.9935934444777601  0.937292079017789  1.0000
  Zr  Zr3       1.0  0.32218081370292495  0.27203105916372206  0.4958971090120179  1.0000
  Zr  Zr4       1.0  0.6582733140443477  0.03585671352143294  0.6571655631482065  1.0000
  O   O1        1.0  0.6570409826480343  0.7248665444596867  0.6234889750056034  1.0000
  O   O2        1.0  0.836714807042723  0.02675507216451134  0.03630992582770176  1.0000
  O   O3        1.0  0.2456113143107479  0.8615350579511016  0.11599662201935068  1.0000
  O   O4        1.0  0.06474122447865227  0.26892262663988054  0.6827194633395717  1.0000
  O   O5        1.0  0.7647438689037251  0.3435365303671283  0.6988354903028622  1.0000
  O   O6        1.0  0.8713681844186958  0.23736694716287587  0.2601917568462664  1.0000
  O   O7        1.0  0.8320325628998102  0.5307016574160102  0.1800158133400771  1.0000
  O   O8        1.0  0.9729882005538713  0.5128599743618807  0.8714294419573747  1.0000
