data_image0
_chemical_formula_structural       Zr4O8
_chemical_formula_sum              "Zr4 O8"
_cell_length_a       5.1539878367877705
_cell_length_b       5.22810872
_cell_length_c       5.329696159145639
_cell_angle_alpha    90.0
_cell_angle_beta     99.43692258379697
_cell_angle_gamma    90.0

_space_group_name_H-M_alt    "P 1"
_space_group_IT_number       1

loop_
  _space_group_symop_operation_xyz
  'x, y, z'

loop_
  _atom_site_type_symbol
  _atom_site_label
  _atom_site_symmetry_multiplicity
  _atom_site_fract_x
  _atom_site_fract_y
  _atom_site_fract_z
  _atom_site_occupancy
  Zr  Zr1       1.0  0.8977061699225048  0.3274584949735928  0.04385213494510154  1.0000
  Zr  Zr2       1.0  0.4069904051115074  0.7973086497409874  0.625463379965737  1.0000
  Zr  Zr3       1.0  0.7446094059516959  0.13255109363666567  0.9370433503670244  1.0000
  Zr  Zr4       1.0  0.5833607238391298  0.42301129939544424  0.934547734178051  1.0000
  O   O1        1.0  0.48028130348047426  0.9081778412431838  0.9585030110552886  1.0000
  O   O2        1.0  0.6516990701886121  0.4178382190165486  0.9193220949402718  1.0000
  O   O3        1.0  0.32297673470568644  0.11826296697928962  0.2955909739956297  1.0000
  O   O4        1.0  0.02476220537396756  0.8850350341128168  0.9501664631333702  1.0000
  O   O5        1.0  0.12941045266105133  0.5772405349758181  0.8526468584371614  1.0000
  O   O6        1.0  0.5936030892976589  0.21351536293722972  0.726212139582799  1.0000
  O   O7        1.0  0.501002004285013  0.6256653573492166  0.7989214020993956  1.0000
  O   O8        1.0  0.7886023612351956  0.5547922322853651  0.7053689294342966  1.0000
