data_image0
_chemical_formula_structural       Zr4O8
_chemical_formula_sum              "Zr4 O8"
_cell_length_a       5.1539878367877705
_cell_length_b       5.22810872
_cell_length_c       5.329696159145639
_cell_angle_alpha    90.0
_cell_angle_beta     99.43692258379697
_cell_angle_gamma    90.0

_space_group_name_H-M_alt    "P 1"
_space_group_IT_number       1

loop_
  _space_group_symop_operation_xyz
  'x, y, z'

loop_
  _atom_site_type_symbol
  _atom_site_label
  _atom_site_symmetry_multiplicity
  _atom_site_fract_x
  _atom_site_fract_y
  _atom_site_fract_z
  _atom_site_occupancy
  Zr  Zr1       1.0  0.5437580632824712  0.8121323446465176  0.47899386281341627  1.0000
  Zr  Zr2       1.0  0.45403499406690884  0.42219351373104885  0.9307033462912688  1.0000
  Zr  Zr3       1.0  0.5039587913441053  0.02806186509912223  0.41288279305649644  1.0000
  Zr  Zr4       1.0  0.8242043996034263  0.9792462871305236  0.25469604823717873  1.0000
  O   O1        1.0  0.9963961060008177  0.27590782988282214  0.6465689425875336  1.0000
  O   O2        1.0  0.0915236059111777  0.5816721879312041  0.7883581126439836  1.0000
  O   O3        1.0  0.2754411904346483  0.13082345466123968  0.4384956460158431  1.0000
  O   O4        1.0  0.2736636683422624  0.09180273320971821  0.8117009757146114  1.0000
  O   O5        1.0  0.696913200953535  0.4986092041695187  0.20949363965286238  1.0000
  O   O6        1.0  0.5817610019114454  0.7650438574016505  0.3486862713841994  1.0000
  O   O7        1.0  0.6933938667356898  0.15347501529454988  0.0030236169943513858  1.0000
  O   O8        1.0  0.5185767285935743  0.8914967439527326  0.13740729392337947  1.0000
