data_image0
_chemical_formula_structural       Zr4O8
_chemical_formula_sum              "Zr4 O8"
_cell_length_a       5.1539878367877705
_cell_length_b       5.22810872
_cell_length_c       5.329696159145639
_cell_angle_alpha    90.0
_cell_angle_beta     99.43692258379697
_cell_angle_gamma    90.0

_space_group_name_H-M_alt    "P 1"
_space_group_IT_number       1

loop_
  _space_group_symop_operation_xyz
  'x, y, z'

loop_
  _atom_site_type_symbol
  _atom_site_label
  _atom_site_symmetry_multiplicity
  _atom_site_fract_x
  _atom_site_fract_y
  _atom_site_fract_z
  _atom_site_occupancy
  Zr  Zr1       1.0  0.5419852171975421  0.2913900039517285  0.5520747465664817  1.0000
  Zr  Zr2       1.0  0.3615862340789304  0.0366739692142648  0.4532815061707334  1.0000
  Zr  Zr3       1.0  0.23722346550713336  0.6376589573884033  0.9180070993297864  1.0000
  Zr  Zr4       1.0  0.14492617456835655  0.8988095289343923  0.40930147182117693  1.0000
  O   O1        1.0  0.9337453040569994  0.047102158624355184  0.6154183370864388  1.0000
  O   O2        1.0  0.5155488690527052  0.8880311452052432  0.5642140677738539  1.0000
  O   O3        1.0  0.557261429331092  0.863923585051154  0.3794100829468672  1.0000
  O   O4        1.0  0.360445989289051  0.4069614054684543  0.61864646840624  1.0000
  O   O5        1.0  0.7313240945838615  0.847081135988109  0.4403543298013455  1.0000
  O   O6        1.0  0.18114354745344774  0.208064385113234  0.9082246891439526  1.0000
  O   O7        1.0  0.4512572997234643  0.0637168483581263  0.5520668230631145  1.0000
  O   O8        1.0  0.49506015444576545  0.048555455424214244  0.7188355528752188  1.0000
