data_image0
_chemical_formula_structural       Zr4O8
_chemical_formula_sum              "Zr4 O8"
_cell_length_a       5.1539878367877705
_cell_length_b       5.22810872
_cell_length_c       5.329696159145639
_cell_angle_alpha    90.0
_cell_angle_beta     99.43692258379697
_cell_angle_gamma    90.0

_space_group_name_H-M_alt    "P 1"
_space_group_IT_number       1

loop_
  _space_group_symop_operation_xyz
  'x, y, z'

loop_
  _atom_site_type_symbol
  _atom_site_label
  _atom_site_symmetry_multiplicity
  _atom_site_fract_x
  _atom_site_fract_y
  _atom_site_fract_z
  _atom_site_occupancy
  Zr  Zr1       1.0  0.9801661957221244  0.08458838010987968  0.8742149213677504  1.0000
  Zr  Zr2       1.0  0.6401703516469688  0.3828779570588683  0.8311048556863199  1.0000
  Zr  Zr3       1.0  0.2955008348181405  0.7463797255525111  0.2836431973656417  1.0000
  Zr  Zr4       1.0  0.4728620835845948  0.010790901664830876  0.6198113480775334  1.0000
  O   O1        1.0  0.7968022533172672  0.1678095387924099  0.051902655729350045  1.0000
  O   O2        1.0  0.43286955022135487  0.6108633291179437  0.5385932695718947  1.0000
  O   O3        1.0  0.020484490121451593  0.3983798936328835  0.452691392517508  1.0000
  O   O4        1.0  0.07095782049624688  0.9240728128814997  0.21903825286855816  1.0000
  O   O5        1.0  0.8173864952818937  0.9663812293910023  0.12323668374647667  1.0000
  O   O6        1.0  0.33793604558330514  0.5054425413290673  0.5756840553568772  1.0000
  O   O7        1.0  0.8455993660470824  0.18854060946851092  0.28059807886630495  1.0000
  O   O8        1.0  0.28737567345795934  0.4768701002042519  0.4196480170667112  1.0000
