data_image0
_chemical_formula_structural       Zr4O8
_chemical_formula_sum              "Zr4 O8"
_cell_length_a       5.1539878367877705
_cell_length_b       5.22810872
_cell_length_c       5.329696159145639
_cell_angle_alpha    90.0
_cell_angle_beta     99.43692258379697
_cell_angle_gamma    90.0

_space_group_name_H-M_alt    "P 1"
_space_group_IT_number       1

loop_
  _space_group_symop_operation_xyz
  'x, y, z'

loop_
  _atom_site_type_symbol
  _atom_site_label
  _atom_site_symmetry_multiplicity
  _atom_site_fract_x
  _atom_site_fract_y
  _atom_site_fract_z
  _atom_site_occupancy
  Zr  Zr1       1.0  0.1981372946872657  0.6458776639788724  0.40453556307811256  1.0000
  Zr  Zr2       1.0  0.09529684418452256  0.8452815946450691  0.973224877178053  1.0000
  Zr  Zr3       1.0  0.12776036659339596  0.037031330182749844  0.4009378720415686  1.0000
  Zr  Zr4       1.0  0.8699118527190288  0.2027896152506372  0.5111199666623643  1.0000
  O   O1        1.0  0.14079765477409456  0.6881718043511569  0.972173450000875  1.0000
  O   O2        1.0  0.8944785528259391  0.5714766970282046  0.3808175995351579  1.0000
  O   O3        1.0  0.48145414119329466  0.7768828734939183  0.8377232450083483  1.0000
  O   O4        1.0  0.12584004871249377  0.3387909959846134  0.32551517461386936  1.0000
  O   O5        1.0  0.6494148707872771  0.4618428599933573  0.218581101326766  1.0000
  O   O6        1.0  0.8898914185428524  0.7825681415283192  0.12747994085309955  1.0000
  O   O7        1.0  0.9375316233297442  0.3407472706864412  0.12655269253302137  1.0000
  O   O8        1.0  0.718488138222348  0.11006633221956719  0.4964512869698203  1.0000
