data_image0
_chemical_formula_structural       Zr4O8
_chemical_formula_sum              "Zr4 O8"
_cell_length_a       5.1539878367877705
_cell_length_b       5.22810872
_cell_length_c       5.329696159145639
_cell_angle_alpha    90.0
_cell_angle_beta     99.43692258379697
_cell_angle_gamma    90.0

_space_group_name_H-M_alt    "P 1"
_space_group_IT_number       1

loop_
  _space_group_symop_operation_xyz
  'x, y, z'

loop_
  _atom_site_type_symbol
  _atom_site_label
  _atom_site_symmetry_multiplicity
  _atom_site_fract_x
  _atom_site_fract_y
  _atom_site_fract_z
  _atom_site_occupancy
  Zr  Zr1       1.0  0.9700718495848815  0.8053794867682633  0.10624282972161048  1.0000
  Zr  Zr2       1.0  0.14781492039815802  0.4133267612003917  0.4103886039718869  1.0000
  Zr  Zr3       1.0  0.7950632154289181  0.32641188896090867  0.2908286138106153  1.0000
  Zr  Zr4       1.0  0.7754387716078952  0.028986251815847464  0.5298499511970789  1.0000
  O   O1        1.0  0.9294304363545729  0.29702060215710446  0.24051049952441872  1.0000
  O   O2        1.0  0.6145521162153074  0.1443363244834046  0.1132764623018705  1.0000
  O   O3        1.0  0.42284632575302794  0.11369438342735094  0.2977010055945719  1.0000
  O   O4        1.0  0.43157961886765994  0.7615956313459549  0.9763419546660614  1.0000
  O   O5        1.0  0.6434095361130563  0.10117032060427533  0.44980123415164996  1.0000
  O   O6        1.0  0.822063865250243  0.8354328203110164  0.9001091513606525  1.0000
  O   O7        1.0  0.8516467535176346  0.42098114413123433  0.5076068677566141  1.0000
  O   O8        1.0  0.20550214404962652  0.7237623067473624  0.7047361551104956  1.0000
