data_image0
_chemical_formula_structural       Zr4O8
_chemical_formula_sum              "Zr4 O8"
_cell_length_a       5.1539878367877705
_cell_length_b       5.22810872
_cell_length_c       5.329696159145639
_cell_angle_alpha    90.0
_cell_angle_beta     99.43692258379697
_cell_angle_gamma    90.0

_space_group_name_H-M_alt    "P 1"
_space_group_IT_number       1

loop_
  _space_group_symop_operation_xyz
  'x, y, z'

loop_
  _atom_site_type_symbol
  _atom_site_label
  _atom_site_symmetry_multiplicity
  _atom_site_fract_x
  _atom_site_fract_y
  _atom_site_fract_z
  _atom_site_occupancy
  Zr  Zr1       1.0  0.3117010790962178  0.6685299366240809  0.9581233370603531  1.0000
  Zr  Zr2       1.0  0.41493676209013763  0.16091754059839758  0.5255526599263751  1.0000
  Zr  Zr3       1.0  0.6666856444690854  0.9710663890929272  0.07158279567785009  1.0000
  Zr  Zr4       1.0  0.9314897781184168  0.7053825143651169  0.9281599868414006  1.0000
  O   O1        1.0  0.732138917648367  0.8909420118336674  0.5476208455070051  1.0000
  O   O2        1.0  0.014081377652203741  0.7031935580942559  0.39385155602708166  1.0000
  O   O3        1.0  0.08275359836617469  0.13960775961339067  0.8082100105203773  1.0000
  O   O4        1.0  0.19599459271255704  0.3989999364747945  0.8798821155403616  1.0000
  O   O5        1.0  0.18703982025935062  0.7822722294931452  0.9812920991376775  1.0000
  O   O6        1.0  0.40816429595954773  0.5395237594264941  0.44745754080884925  1.0000
  O   O7        1.0  0.6285270833997423  0.5925616642441947  0.9009641425614099  1.0000
  O   O8        1.0  0.5685088546502195  0.6071281996137046  0.7239863486574123  1.0000
