data_image0
_chemical_formula_structural       Zr4O8
_chemical_formula_sum              "Zr4 O8"
_cell_length_a       5.1539878367877705
_cell_length_b       5.22810872
_cell_length_c       5.329696159145639
_cell_angle_alpha    90.0
_cell_angle_beta     99.43692258379697
_cell_angle_gamma    90.0

_space_group_name_H-M_alt    "P 1"
_space_group_IT_number       1

loop_
  _space_group_symop_operation_xyz
  'x, y, z'

loop_
  _atom_site_type_symbol
  _atom_site_label
  _atom_site_symmetry_multiplicity
  _atom_site_fract_x
  _atom_site_fract_y
  _atom_site_fract_z
  _atom_site_occupancy
  Zr  Zr1       1.0  0.22181649274963178  0.9198662950390357  0.1796573342756007  1.0000
  Zr  Zr2       1.0  0.6143798222345609  0.1032385807140841  0.32720626190987545  1.0000
  Zr  Zr3       1.0  0.9504461664098809  0.9020906041910921  0.12420751061356694  1.0000
  Zr  Zr4       1.0  0.6008341784850293  0.25804894610342366  0.7130159749364191  1.0000
  O   O1        1.0  0.37236472302742385  0.01059949967243412  0.3856786027569292  1.0000
  O   O2        1.0  0.9922488158885017  0.9381766695417664  0.11137220785402135  1.0000
  O   O3        1.0  0.0866672290499575  0.048050876132506026  0.03609372530704391  1.0000
  O   O4        1.0  0.6774151982598617  0.9429956359039915  0.021132136051873474  1.0000
  O   O5        1.0  0.3510177152654457  0.09988011815447351  0.3548616613345388  1.0000
  O   O6        1.0  0.8337339001149466  0.4302716308788064  0.33714044447068225  1.0000
  O   O7        1.0  0.9544391231633638  0.3930782881522621  0.6595326194203466  1.0000
  O   O8        1.0  0.8252038673868434  0.22805637467365614  0.7160297352915101  1.0000
