data_image0
_chemical_formula_structural       Zr4O8
_chemical_formula_sum              "Zr4 O8"
_cell_length_a       5.1539878367877705
_cell_length_b       5.22810872
_cell_length_c       5.329696159145639
_cell_angle_alpha    90.0
_cell_angle_beta     99.43692258379697
_cell_angle_gamma    90.0

_space_group_name_H-M_alt    "P 1"
_space_group_IT_number       1

loop_
  _space_group_symop_operation_xyz
  'x, y, z'

loop_
  _atom_site_type_symbol
  _atom_site_label
  _atom_site_symmetry_multiplicity
  _atom_site_fract_x
  _atom_site_fract_y
  _atom_site_fract_z
  _atom_site_occupancy
  Zr  Zr1       1.0  0.8423096460382826  0.4952292504517217  0.4219701350416085  1.0000
  Zr  Zr2       1.0  0.5511330715885645  0.5423209932830808  0.7387987655241446  1.0000
  Zr  Zr3       1.0  0.5579300677601324  0.9352851600548404  0.5796432080370222  1.0000
  Zr  Zr4       1.0  0.9599137162466715  0.8500967200138398  0.19676775819503867  1.0000
  O   O1        1.0  0.07169627157341729  0.22670580057175016  0.7396632880213563  1.0000
  O   O2        1.0  0.7795562626193693  0.7225257892457968  0.9563350660217764  1.0000
  O   O3        1.0  0.616650688906577  0.9507681137165844  0.3561103271203834  1.0000
  O   O4        1.0  0.3284196891202653  0.1037243522997997  0.9092542980973057  1.0000
  O   O5        1.0  0.5762332979202913  0.6851266773133577  0.45443567687800623  1.0000
  O   O6        1.0  0.3702062374916153  0.8009799172189735  0.9834393459040847  1.0000
  O   O7        1.0  0.9605217537172468  0.43247949122542906  0.9748843733512587  1.0000
  O   O8        1.0  0.3469242375620336  0.9434695559519923  0.2011374069806955  1.0000
