data_image0
_chemical_formula_structural       Zr4O8
_chemical_formula_sum              "Zr4 O8"
_cell_length_a       5.1539878367877705
_cell_length_b       5.22810872
_cell_length_c       5.329696159145639
_cell_angle_alpha    90.0
_cell_angle_beta     99.43692258379697
_cell_angle_gamma    90.0

_space_group_name_H-M_alt    "P 1"
_space_group_IT_number       1

loop_
  _space_group_symop_operation_xyz
  'x, y, z'

loop_
  _atom_site_type_symbol
  _atom_site_label
  _atom_site_symmetry_multiplicity
  _atom_site_fract_x
  _atom_site_fract_y
  _atom_site_fract_z
  _atom_site_occupancy
  Zr  Zr1       1.0  0.21139158505027034  0.8247365928506216  0.9634859032798975  1.0000
  Zr  Zr2       1.0  0.7442306891782895  0.35071666850149974  0.8052684240344208  1.0000
  Zr  Zr3       1.0  0.9614254090700349  0.27732609589858015  0.3906260102604424  1.0000
  Zr  Zr4       1.0  0.8546953576047435  0.311745317302595  0.6356954435714943  1.0000
  O   O1        1.0  0.8600189285000539  0.7402444604708229  0.36631586951394723  1.0000
  O   O2        1.0  0.5118147229090848  0.9353092103379055  0.36133088818323067  1.0000
  O   O3        1.0  0.6130054101591664  0.5383848814661363  0.729628128706608  1.0000
  O   O4        1.0  0.36892658255584365  0.002147134594062905  0.011177841897891838  1.0000
  O   O5        1.0  0.62051133517841  0.3233936251440763  0.9717549292026462  1.0000
  O   O6        1.0  0.7344454907527123  0.025973451906367018  0.10485794071881216  1.0000
  O   O7        1.0  0.5656575123395235  0.8282922220335003  0.5434708765743892  1.0000
  O   O8        1.0  0.15634835788165535  0.672361564899493  0.32962902561653173  1.0000
