data_image0
_chemical_formula_structural       Zr4O8
_chemical_formula_sum              "Zr4 O8"
_cell_length_a       5.1539878367877705
_cell_length_b       5.22810872
_cell_length_c       5.329696159145639
_cell_angle_alpha    90.0
_cell_angle_beta     99.43692258379697
_cell_angle_gamma    90.0

_space_group_name_H-M_alt    "P 1"
_space_group_IT_number       1

loop_
  _space_group_symop_operation_xyz
  'x, y, z'

loop_
  _atom_site_type_symbol
  _atom_site_label
  _atom_site_symmetry_multiplicity
  _atom_site_fract_x
  _atom_site_fract_y
  _atom_site_fract_z
  _atom_site_occupancy
  Zr  Zr1       1.0  0.33940996873162277  0.8865134521345297  0.7050203757889745  1.0000
  Zr  Zr2       1.0  0.062439875472197315  0.6010038291913844  0.9415956419056339  1.0000
  Zr  Zr3       1.0  0.5791364843539384  0.8354507143932994  0.7812005233296073  1.0000
  Zr  Zr4       1.0  0.06448865101403956  0.12958773780045796  0.802321403363182  1.0000
  O   O1        1.0  0.20390279105196196  0.08267077498373254  0.40453200424987834  1.0000
  O   O2        1.0  0.8502036906441219  0.9630923537238303  0.01806824532149065  1.0000
  O   O3        1.0  0.27223989680498484  0.874550912164965  0.7161389307615131  1.0000
  O   O4        1.0  0.9461773454704492  0.19541530755622816  0.3455954506340735  1.0000
  O   O5        1.0  0.30548438364366426  0.2772566977444395  0.7338407882357529  1.0000
  O   O6        1.0  0.1479880789016832  0.2627302301331822  0.9057971222739525  1.0000
  O   O7        1.0  0.24183358401572305  0.29482290273158895  0.3753440652654554  1.0000
  O   O8        1.0  0.9664936349504938  0.7232147485853773  0.3524330145934611  1.0000
