data_image0
_chemical_formula_structural       Zr4O8
_chemical_formula_sum              "Zr4 O8"
_cell_length_a       5.1539878367877705
_cell_length_b       5.22810872
_cell_length_c       5.329696159145639
_cell_angle_alpha    90.0
_cell_angle_beta     99.43692258379697
_cell_angle_gamma    90.0

_space_group_name_H-M_alt    "P 1"
_space_group_IT_number       1

loop_
  _space_group_symop_operation_xyz
  'x, y, z'

loop_
  _atom_site_type_symbol
  _atom_site_label
  _atom_site_symmetry_multiplicity
  _atom_site_fract_x
  _atom_site_fract_y
  _atom_site_fract_z
  _atom_site_occupancy
  Zr  Zr1       1.0  0.12267870784771695  0.4554742531395899  0.7434079328770711  1.0000
  Zr  Zr2       1.0  0.06017307881320022  0.4185613536847015  0.33995467195670237  1.0000
  Zr  Zr3       1.0  0.12801377104447909  0.21130223355572364  0.042839844398509186  1.0000
  Zr  Zr4       1.0  0.33989445951485764  0.7192347402685817  0.9791301618601604  1.0000
  O   O1        1.0  0.2664208264014576  0.5558519010747993  0.9370536872721473  1.0000
  O   O2        1.0  0.6259538290351152  0.6613221420487676  0.19517192668923666  1.0000
  O   O3        1.0  0.2122202664113848  0.13339851933530866  0.6372069280818877  1.0000
  O   O4        1.0  0.26893973601131194  0.3190068091186884  0.08580568610322992  1.0000
  O   O5        1.0  0.02825775675675679  0.08689503326959347  0.1679630059755013  1.0000
  O   O6        1.0  0.75490787369408  0.6038459071302782  0.6635772632425763  1.0000
  O   O7        1.0  0.4099674336976591  0.6206681059140493  0.22788563571992881  1.0000
  O   O8        1.0  0.4379549409406568  0.3207459171786944  0.4351062024873489  1.0000
