data_image0
_chemical_formula_structural       Zr4O8
_chemical_formula_sum              "Zr4 O8"
_cell_length_a       5.1539878367877705
_cell_length_b       5.22810872
_cell_length_c       5.329696159145639
_cell_angle_alpha    90.0
_cell_angle_beta     99.43692258379697
_cell_angle_gamma    90.0

_space_group_name_H-M_alt    "P 1"
_space_group_IT_number       1

loop_
  _space_group_symop_operation_xyz
  'x, y, z'

loop_
  _atom_site_type_symbol
  _atom_site_label
  _atom_site_symmetry_multiplicity
  _atom_site_fract_x
  _atom_site_fract_y
  _atom_site_fract_z
  _atom_site_occupancy
  Zr  Zr1       1.0  0.7525922952008708  0.6269783331856775  0.142683178788916  1.0000
  Zr  Zr2       1.0  0.03756937279954542  0.12843944285366504  0.32715457751398347  1.0000
  Zr  Zr3       1.0  0.1601140320537997  0.45207437950687046  0.4960436102033299  1.0000
  Zr  Zr4       1.0  0.11081597066604913  0.4151969613472408  0.2831365507460273  1.0000
  O   O1        1.0  0.8302064142822729  0.45452932691810943  0.2556973367873887  1.0000
  O   O2        1.0  0.2815923237493436  0.9885752675131201  0.12372646921159647  1.0000
  O   O3        1.0  0.4717810923638668  0.0756682095101695  0.8309161220689241  1.0000
  O   O4        1.0  0.9612621333488036  0.6783215567536356  0.6230521404447371  1.0000
  O   O5        1.0  0.13524755253375975  0.24400153235945687  0.7260562590704964  1.0000
  O   O6        1.0  0.6874056803645772  0.00043446535082836135  0.42360277254501  1.0000
  O   O7        1.0  0.6125140992446632  0.17000624567090483  0.44150546198227403  1.0000
  O   O8        1.0  0.5094335043742799  0.5820289178897902  0.45407602960484006  1.0000
