data_image0
_chemical_formula_structural       Zr4O8
_chemical_formula_sum              "Zr4 O8"
_cell_length_a       5.1539878367877705
_cell_length_b       5.22810872
_cell_length_c       5.329696159145639
_cell_angle_alpha    90.0
_cell_angle_beta     99.43692258379697
_cell_angle_gamma    90.0

_space_group_name_H-M_alt    "P 1"
_space_group_IT_number       1

loop_
  _space_group_symop_operation_xyz
  'x, y, z'

loop_
  _atom_site_type_symbol
  _atom_site_label
  _atom_site_symmetry_multiplicity
  _atom_site_fract_x
  _atom_site_fract_y
  _atom_site_fract_z
  _atom_site_occupancy
  Zr  Zr1       1.0  0.5383071602681841  0.43682704807151396  0.08771610567929855  1.0000
  Zr  Zr2       1.0  0.8990356162453281  0.4644482464544524  0.5908601356791028  1.0000
  Zr  Zr3       1.0  0.43241030893704036  0.2786751732076791  0.8547135612998709  1.0000
  Zr  Zr4       1.0  0.6327610469477198  0.8286310766196987  0.3065970913990945  1.0000
  O   O1        1.0  0.5798852801817702  0.16563697837769098  0.3071979335966937  1.0000
  O   O2        1.0  0.870275575250888  0.29845276455234426  0.7411703093226922  1.0000
  O   O3        1.0  0.058280555546646795  0.271589625298283  0.9766090274277976  1.0000
  O   O4        1.0  0.40188168228063503  0.9401428341839808  0.8435103197162488  1.0000
  O   O5        1.0  0.16527006609303996  0.9192789155243872  0.713810000405303  1.0000
  O   O6        1.0  0.721847743289203  0.3734795018725521  0.6863022958509291  1.0000
  O   O7        1.0  0.0401443153077885  0.9554628743239242  0.8698121001256283  1.0000
  O   O8        1.0  0.07001152063228577  0.253109992776519  0.4695055404462032  1.0000
