data_image0
_chemical_formula_structural       Zr4O8
_chemical_formula_sum              "Zr4 O8"
_cell_length_a       5.1539878367877705
_cell_length_b       5.22810872
_cell_length_c       5.329696159145639
_cell_angle_alpha    90.0
_cell_angle_beta     99.43692258379697
_cell_angle_gamma    90.0

_space_group_name_H-M_alt    "P 1"
_space_group_IT_number       1

loop_
  _space_group_symop_operation_xyz
  'x, y, z'

loop_
  _atom_site_type_symbol
  _atom_site_label
  _atom_site_symmetry_multiplicity
  _atom_site_fract_x
  _atom_site_fract_y
  _atom_site_fract_z
  _atom_site_occupancy
  Zr  Zr1       1.0  0.9041906239616546  0.7873548282092582  0.3091778949296824  1.0000
  Zr  Zr2       1.0  0.07972933592295917  0.7157371770172531  0.9515657500303725  1.0000
  Zr  Zr3       1.0  0.2235501919082612  0.13647909982696937  0.7205106830662764  1.0000
  Zr  Zr4       1.0  0.6872482031549232  0.44435018192112263  0.2135033488497342  1.0000
  O   O1        1.0  0.6656075175090024  0.6790973819350654  0.8061601090857415  1.0000
  O   O2        1.0  0.560899371297447  0.24189969580922366  0.388045945354063  1.0000
  O   O3        1.0  0.4800052759447313  0.9233621739575  0.006107214292519814  1.0000
  O   O4        1.0  0.538687124016139  0.5707471809790494  0.3850415094941857  1.0000
  O   O5        1.0  0.8619861261248474  0.5438790799137507  0.34453060155524895  1.0000
  O   O6        1.0  0.2869779259865126  0.44946117423083365  0.4508459134277132  1.0000
  O   O7        1.0  0.6425007102347386  0.21884005973583953  0.3236879655181042  1.0000
  O   O8        1.0  0.044628175563527606  0.3057049599006021  0.475446985892793  1.0000
