data_image0
_chemical_formula_structural       Zr4O8
_chemical_formula_sum              "Zr4 O8"
_cell_length_a       5.1539878367877705
_cell_length_b       5.22810872
_cell_length_c       5.329696159145639
_cell_angle_alpha    90.0
_cell_angle_beta     99.43692258379697
_cell_angle_gamma    90.0

_space_group_name_H-M_alt    "P 1"
_space_group_IT_number       1

loop_
  _space_group_symop_operation_xyz
  'x, y, z'

loop_
  _atom_site_type_symbol
  _atom_site_label
  _atom_site_symmetry_multiplicity
  _atom_site_fract_x
  _atom_site_fract_y
  _atom_site_fract_z
  _atom_site_occupancy
  Zr  Zr1       1.0  0.19625053992473562  0.848855587959195  0.3193451918188046  1.0000
  Zr  Zr2       1.0  0.5688758335606998  0.271063492762746  0.6676188075788243  1.0000
  Zr  Zr3       1.0  0.9797001576468543  0.3976841582363324  0.5159667709578146  1.0000
  Zr  Zr4       1.0  0.12499341323302127  0.08113416737467061  0.1701685710547145  1.0000
  O   O1        1.0  0.388521591143558  0.5666406089910225  0.1380406530444347  1.0000
  O   O2        1.0  0.10652642154956027  0.8650958098860757  0.6595970419787569  1.0000
  O   O3        1.0  0.3655771138617183  0.27080067131392127  0.6151848728694167  1.0000
  O   O4        1.0  0.11596406126805503  0.7282114757961518  0.5251904483473355  1.0000
  O   O5        1.0  0.24398712115370813  0.4824374094026318  0.8489734549841517  1.0000
  O   O6        1.0  0.40759825274483763  0.39694970569971866  0.46769878074011295  1.0000
  O   O7        1.0  0.5584796211612044  0.8906637149945436  0.6749949776007433  1.0000
  O   O8        1.0  0.7114057217819774  0.6987792954883427  0.7395807841925268  1.0000
