data_image0
_chemical_formula_structural       Zr4O8
_chemical_formula_sum              "Zr4 O8"
_cell_length_a       5.1539878367877705
_cell_length_b       5.22810872
_cell_length_c       5.329696159145639
_cell_angle_alpha    90.0
_cell_angle_beta     99.43692258379697
_cell_angle_gamma    90.0

_space_group_name_H-M_alt    "P 1"
_space_group_IT_number       1

loop_
  _space_group_symop_operation_xyz
  'x, y, z'

loop_
  _atom_site_type_symbol
  _atom_site_label
  _atom_site_symmetry_multiplicity
  _atom_site_fract_x
  _atom_site_fract_y
  _atom_site_fract_z
  _atom_site_occupancy
  Zr  Zr1       1.0  0.5928563781691434  0.013938912968287198  0.5372351581351401  1.0000
  Zr  Zr2       1.0  0.0004072116188407193  0.47544902539499745  0.9157089640379432  1.0000
  Zr  Zr3       1.0  0.059788849744633055  0.20645891532192273  0.49617300388197183  1.0000
  Zr  Zr4       1.0  0.23510915717308445  0.46926953128871096  0.6703323959877778  1.0000
  O   O1        1.0  0.031181587766100805  0.44076276683738413  0.6806138967919795  1.0000
  O   O2        1.0  0.0857037290108753  0.15067531608834805  0.46444586833270307  1.0000
  O   O3        1.0  0.38297683386130643  0.8207990924291303  0.4326121014935964  1.0000
  O   O4        1.0  0.7061523098002438  0.06357560628823578  0.9846573755762833  1.0000
  O   O5        1.0  0.046784061862661375  0.2829183987929982  0.6410072078069398  1.0000
  O   O6        1.0  0.12462143399429948  0.9582973062442055  0.9245260912634885  1.0000
  O   O7        1.0  0.8314677976244029  0.5270898412396283  0.03951477645537338  1.0000
  O   O8        1.0  0.7952206557256583  0.19525814758762294  0.8374717877085408  1.0000
