data_image0
_chemical_formula_structural       Zr4O8
_chemical_formula_sum              "Zr4 O8"
_cell_length_a       5.1539878367877705
_cell_length_b       5.22810872
_cell_length_c       5.329696159145639
_cell_angle_alpha    90.0
_cell_angle_beta     99.43692258379697
_cell_angle_gamma    90.0

_space_group_name_H-M_alt    "P 1"
_space_group_IT_number       1

loop_
  _space_group_symop_operation_xyz
  'x, y, z'

loop_
  _atom_site_type_symbol
  _atom_site_label
  _atom_site_symmetry_multiplicity
  _atom_site_fract_x
  _atom_site_fract_y
  _atom_site_fract_z
  _atom_site_occupancy
  Zr  Zr1       1.0  0.2881477421183156  0.8594946201268208  0.4512944993747361  1.0000
  Zr  Zr2       1.0  0.6855430245903822  0.4381122857664259  0.4322164655030072  1.0000
  Zr  Zr3       1.0  0.9995036210887598  0.6491874012143626  0.2617835617679759  1.0000
  Zr  Zr4       1.0  0.43728043714543796  0.9696663084849959  0.9970167717854685  1.0000
  O   O1        1.0  0.2467245420930375  0.3390852831691795  0.5523450846803755  1.0000
  O   O2        1.0  0.7913492617748226  0.34889632505744483  0.2622891934478524  1.0000
  O   O3        1.0  0.22263668147830207  0.24143205859407857  0.34729218238960335  1.0000
  O   O4        1.0  0.3879095696278547  0.8054144767945255  0.5003103127538431  1.0000
  O   O5        1.0  0.24556012619764367  0.01980909423416577  0.3397323617068224  1.0000
  O   O6        1.0  0.4375861675371162  0.05814007984353253  0.9378259882555922  1.0000
  O   O7        1.0  0.35936979356646437  0.8481343231655938  0.1961496436021264  1.0000
  O   O8        1.0  0.18207411188079092  0.8745747639369483  0.6116942277858257  1.0000
