data_image0
_chemical_formula_structural       Zr4O8
_chemical_formula_sum              "Zr4 O8"
_cell_length_a       5.1539878367877705
_cell_length_b       5.22810872
_cell_length_c       5.329696159145639
_cell_angle_alpha    90.0
_cell_angle_beta     99.43692258379697
_cell_angle_gamma    90.0

_space_group_name_H-M_alt    "P 1"
_space_group_IT_number       1

loop_
  _space_group_symop_operation_xyz
  'x, y, z'

loop_
  _atom_site_type_symbol
  _atom_site_label
  _atom_site_symmetry_multiplicity
  _atom_site_fract_x
  _atom_site_fract_y
  _atom_site_fract_z
  _atom_site_occupancy
  Zr  Zr1       1.0  0.18647674662765024  0.850804956247039  0.4445569558042628  1.0000
  Zr  Zr2       1.0  0.8785619771295163  0.5083903732332544  0.07290834082697728  1.0000
  Zr  Zr3       1.0  0.920585088828318  0.7658542531237313  0.49957653693006954  1.0000
  Zr  Zr4       1.0  0.016866454027427924  0.07938079551673027  0.0881088450929074  1.0000
  O   O1        1.0  0.8685955304795208  0.6814068689983941  0.9357364518577  1.0000
  O   O2        1.0  0.3243955096296194  0.7100669477641377  0.8667774387833589  1.0000
  O   O3        1.0  0.3259914105271111  0.7310741651532764  0.7623404312330226  1.0000
  O   O4        1.0  0.9826878503398468  0.7023122628778731  0.4916107648568939  1.0000
  O   O5        1.0  0.6893031834855741  0.47945249895090924  0.9531775473915332  1.0000
  O   O6        1.0  0.43116750264322334  0.15623319613899156  0.9288990346604011  1.0000
  O   O7        1.0  0.8961133956152878  0.9930271376044608  0.7007105355857561  1.0000
  O   O8        1.0  0.37127665478125493  0.7995276286790016  0.31714741375505895  1.0000
