data_image0
_chemical_formula_structural       Zr4O8
_chemical_formula_sum              "Zr4 O8"
_cell_length_a       5.1539878367877705
_cell_length_b       5.22810872
_cell_length_c       5.329696159145639
_cell_angle_alpha    90.0
_cell_angle_beta     99.43692258379697
_cell_angle_gamma    90.0

_space_group_name_H-M_alt    "P 1"
_space_group_IT_number       1

loop_
  _space_group_symop_operation_xyz
  'x, y, z'

loop_
  _atom_site_type_symbol
  _atom_site_label
  _atom_site_symmetry_multiplicity
  _atom_site_fract_x
  _atom_site_fract_y
  _atom_site_fract_z
  _atom_site_occupancy
  Zr  Zr1       1.0  0.8112668298206387  0.47015321536409793  0.6785946233407163  1.0000
  Zr  Zr2       1.0  0.3975324462474106  0.6062954406812864  0.07016099928686792  1.0000
  Zr  Zr3       1.0  0.41169060246424927  0.941871105184386  0.8986953374163544  1.0000
  Zr  Zr4       1.0  0.17645716792849164  0.0134453371826595  0.12213549395575685  1.0000
  O   O1        1.0  0.44874765217242185  0.6186325378919051  0.6957379879505758  1.0000
  O   O2        1.0  0.6746788450380365  0.9559701458302481  0.6676938378769157  1.0000
  O   O3        1.0  0.6294610671221132  0.9220728412452139  0.14793323158709804  1.0000
  O   O4        1.0  0.018522335109743437  0.21412803677405112  0.004550753046843714  1.0000
  O   O5        1.0  0.8666287695813928  0.6303666854867558  0.6616071432207633  1.0000
  O   O6        1.0  0.4533429073790529  0.0026164537557491485  0.7984815103805296  1.0000
  O   O7        1.0  0.6323485005080691  0.5885538256012381  0.18121697256584923  1.0000
  O   O8        1.0  0.7608334912543793  0.249897066555004  0.8840320584282075  1.0000
