data_image0
_chemical_formula_structural       Zr4O8
_chemical_formula_sum              "Zr4 O8"
_cell_length_a       5.1539878367877705
_cell_length_b       5.22810872
_cell_length_c       5.329696159145639
_cell_angle_alpha    90.0
_cell_angle_beta     99.43692258379697
_cell_angle_gamma    90.0

_space_group_name_H-M_alt    "P 1"
_space_group_IT_number       1

loop_
  _space_group_symop_operation_xyz
  'x, y, z'

loop_
  _atom_site_type_symbol
  _atom_site_label
  _atom_site_symmetry_multiplicity
  _atom_site_fract_x
  _atom_site_fract_y
  _atom_site_fract_z
  _atom_site_occupancy
  Zr  Zr1       1.0  0.3554627203692835  0.7383629711807185  0.348505576322518  1.0000
  Zr  Zr2       1.0  0.3983202336974614  0.5592381209848227  0.28220312515416524  1.0000
  Zr  Zr3       1.0  0.5145297502862967  0.25218037288202866  0.19592145836863395  1.0000
  Zr  Zr4       1.0  0.38038746939250134  0.5400827682671876  0.951572456606506  1.0000
  O   O1        1.0  0.08810433748467617  0.13976964150674576  0.40218459852200006  1.0000
  O   O2        1.0  0.27216856313465243  0.9860338933141897  0.17226634096768567  1.0000
  O   O3        1.0  0.08867615160300257  0.8155958733799205  0.37693710679326387  1.0000
  O   O4        1.0  0.7792924275484889  0.25161416953941007  0.07680239466351058  1.0000
  O   O5        1.0  0.28308804498441376  0.3264926918496709  0.41802963822124894  1.0000
  O   O6        1.0  0.13016127709475  0.6060426600837019  0.934142396715127  1.0000
  O   O7        1.0  0.02602979472957223  0.647369582774048  0.8887750507794294  1.0000
  O   O8        1.0  0.19891903036993064  0.10198337376627364  0.6862717707630042  1.0000
