data_image0
_chemical_formula_structural       Zr4O8
_chemical_formula_sum              "Zr4 O8"
_cell_length_a       5.1539878367877705
_cell_length_b       5.22810872
_cell_length_c       5.329696159145639
_cell_angle_alpha    90.0
_cell_angle_beta     99.43692258379697
_cell_angle_gamma    90.0

_space_group_name_H-M_alt    "P 1"
_space_group_IT_number       1

loop_
  _space_group_symop_operation_xyz
  'x, y, z'

loop_
  _atom_site_type_symbol
  _atom_site_label
  _atom_site_symmetry_multiplicity
  _atom_site_fract_x
  _atom_site_fract_y
  _atom_site_fract_z
  _atom_site_occupancy
  Zr  Zr1       1.0  0.6548382532811452  0.23059548625899673  0.27011050004559345  1.0000
  Zr  Zr2       1.0  0.5841069353838355  0.7117260691652163  0.10843945007563072  1.0000
  Zr  Zr3       1.0  0.33062889231912873  0.3454718779425383  0.965493734346623  1.0000
  Zr  Zr4       1.0  0.4465559663576306  0.9743803329740102  0.7498346026236145  1.0000
  O   O1        1.0  0.783284582406722  0.6592299539982562  0.09892033244195986  1.0000
  O   O2        1.0  0.9442535594272398  0.3261008623854223  0.5571550057534789  1.0000
  O   O3        1.0  0.2558674644658172  0.6107324656808268  0.3486219762076814  1.0000
  O   O4        1.0  0.22964943861027898  0.910751519583143  0.016600490083365393  1.0000
  O   O5        1.0  0.8439353205269153  0.29413012912371705  0.07794101299170109  1.0000
  O   O6        1.0  0.26473445694881326  0.9859771756534208  0.11676219501390772  1.0000
  O   O7        1.0  0.5362736667451813  0.5090017005088914  0.8302774987349544  1.0000
  O   O8        1.0  0.7215337406550617  0.723936674433098  0.4040411238459809  1.0000
