data_image0
_chemical_formula_structural       Zr4O8
_chemical_formula_sum              "Zr4 O8"
_cell_length_a       5.1539878367877705
_cell_length_b       5.22810872
_cell_length_c       5.329696159145639
_cell_angle_alpha    90.0
_cell_angle_beta     99.43692258379697
_cell_angle_gamma    90.0

_space_group_name_H-M_alt    "P 1"
_space_group_IT_number       1

loop_
  _space_group_symop_operation_xyz
  'x, y, z'

loop_
  _atom_site_type_symbol
  _atom_site_label
  _atom_site_symmetry_multiplicity
  _atom_site_fract_x
  _atom_site_fract_y
  _atom_site_fract_z
  _atom_site_occupancy
  Zr  Zr1       1.0  0.9218961891010693  0.22512551825549565  0.8133856536300135  1.0000
  Zr  Zr2       1.0  0.7053791337582513  0.46637670994425307  0.8317734898792946  1.0000
  Zr  Zr3       1.0  0.654157254629018  0.9522904925714597  0.4107809588446649  1.0000
  Zr  Zr4       1.0  0.9634753822043167  0.01982377233489352  0.695974480157223  1.0000
  O   O1        1.0  0.2843225730160839  0.8850861747031189  0.40607600584793957  1.0000
  O   O2        1.0  0.506460897101654  0.09724737353724322  0.8963638142554999  1.0000
  O   O3        1.0  0.18265101855607585  0.38796170956144493  0.9128811068097242  1.0000
  O   O4        1.0  0.5469509546996321  0.2122987365450424  0.2798758009636333  1.0000
  O   O5        1.0  0.2485681387471521  0.08678798047617065  0.005838329549810339  1.0000
  O   O6        1.0  0.6433446127019522  0.20486665090796663  0.5566562771622756  1.0000
  O   O7        1.0  0.5668449106423701  0.03457579810132927  0.9954493214035978  1.0000
  O   O8        1.0  0.837659872335434  0.3977109321362917  0.04794339521479607  1.0000
