data_image0
_chemical_formula_structural       Zr4O8
_chemical_formula_sum              "Zr4 O8"
_cell_length_a       5.1539878367877705
_cell_length_b       5.22810872
_cell_length_c       5.329696159145639
_cell_angle_alpha    90.0
_cell_angle_beta     99.43692258379697
_cell_angle_gamma    90.0

_space_group_name_H-M_alt    "P 1"
_space_group_IT_number       1

loop_
  _space_group_symop_operation_xyz
  'x, y, z'

loop_
  _atom_site_type_symbol
  _atom_site_label
  _atom_site_symmetry_multiplicity
  _atom_site_fract_x
  _atom_site_fract_y
  _atom_site_fract_z
  _atom_site_occupancy
  Zr  Zr1       1.0  0.9260712115352656  0.45383344620768007  0.2408859684785858  1.0000
  Zr  Zr2       1.0  0.33508356639185166  0.4483505768830707  0.0979189576952475  1.0000
  Zr  Zr3       1.0  0.7517175322848884  0.3309953906783054  0.6298443748642679  1.0000
  Zr  Zr4       1.0  0.2851245370753208  0.6265236357273558  0.487707443082952  1.0000
  O   O1        1.0  0.7142709606337654  0.7131877481671882  0.6776972493934821  1.0000
  O   O2        1.0  0.9307368042875694  0.4230220308092356  0.6683131778624762  1.0000
  O   O3        1.0  0.5918497696898015  0.11735937264930385  0.9490601690019611  1.0000
  O   O4        1.0  0.6113975087695298  0.29894401920413394  0.7220261060806479  1.0000
  O   O5        1.0  0.05917349061649446  0.9889432973130212  0.6380363139324983  1.0000
  O   O6        1.0  0.7722800669522023  0.7794174443715889  0.5685384193131582  1.0000
  O   O7        1.0  0.5244357415441705  0.4054573821064338  0.17570095986085477  1.0000
  O   O8        1.0  0.04194421834601769  0.3386440295964377  0.9254133278332546  1.0000
