data_image0
_chemical_formula_structural       Zr4O8
_chemical_formula_sum              "Zr4 O8"
_cell_length_a       5.1539878367877705
_cell_length_b       5.22810872
_cell_length_c       5.329696159145639
_cell_angle_alpha    90.0
_cell_angle_beta     99.43692258379697
_cell_angle_gamma    90.0

_space_group_name_H-M_alt    "P 1"
_space_group_IT_number       1

loop_
  _space_group_symop_operation_xyz
  'x, y, z'

loop_
  _atom_site_type_symbol
  _atom_site_label
  _atom_site_symmetry_multiplicity
  _atom_site_fract_x
  _atom_site_fract_y
  _atom_site_fract_z
  _atom_site_occupancy
  Zr  Zr1       1.0  0.02860471142527299  0.61202431169073  0.43818045483221724  1.0000
  Zr  Zr2       1.0  0.06849307576636043  0.4821808977929738  0.2454980267647029  1.0000
  Zr  Zr3       1.0  0.10873543571863742  0.638257075927211  0.21922454421378923  1.0000
  Zr  Zr4       1.0  0.46928924813214123  0.45883560040624705  0.38941073473192844  1.0000
  O   O1        1.0  0.9880557503539507  0.521517019166442  0.31870153338284624  1.0000
  O   O2        1.0  0.9182832669726935  0.5858564563058977  0.8480435442743133  1.0000
  O   O3        1.0  0.5092659256504328  0.3150666401204596  0.039881254515272246  1.0000
  O   O4        1.0  0.8662501636242439  0.524874671986888  0.3252826339800716  1.0000
  O   O5        1.0  0.7528670732558522  0.31514056501417365  0.3767936023378198  1.0000
  O   O6        1.0  0.19062816817403672  0.06416566060636342  0.7347833117988962  1.0000
  O   O7        1.0  0.6863699415317299  0.9081858663420768  0.6089145709817387  1.0000
  O   O8        1.0  0.04799511656953115  0.008536353735538071  0.11503229143852423  1.0000
