data_image0
_chemical_formula_structural       Zr4O8
_chemical_formula_sum              "Zr4 O8"
_cell_length_a       5.1539878367877705
_cell_length_b       5.22810872
_cell_length_c       5.329696159145639
_cell_angle_alpha    90.0
_cell_angle_beta     99.43692258379697
_cell_angle_gamma    90.0

_space_group_name_H-M_alt    "P 1"
_space_group_IT_number       1

loop_
  _space_group_symop_operation_xyz
  'x, y, z'

loop_
  _atom_site_type_symbol
  _atom_site_label
  _atom_site_symmetry_multiplicity
  _atom_site_fract_x
  _atom_site_fract_y
  _atom_site_fract_z
  _atom_site_occupancy
  Zr  Zr1       1.0  0.5021901614552648  0.17986054229076132  0.9215269159718797  1.0000
  Zr  Zr2       1.0  0.473261535042794  0.8347182947702887  0.9402701795694486  1.0000
  Zr  Zr3       1.0  0.41732924242281033  0.4298852116827625  0.7635569660390473  1.0000
  Zr  Zr4       1.0  0.23800572074951987  0.15245602451741025  0.12992070900636854  1.0000
  O   O1        1.0  0.5618126491262103  0.6161434514095054  0.030465919160221233  1.0000
  O   O2        1.0  0.5080630263464112  0.5889301555024673  0.9584196123312866  1.0000
  O   O3        1.0  0.5837952025652626  0.39870442773384696  0.2614614104039372  1.0000
  O   O4        1.0  0.4609628285061582  0.6220846870736878  0.2905101718365124  1.0000
  O   O5        1.0  0.3067444052240518  0.5607855511122395  0.09572762495023568  1.0000
  O   O6        1.0  0.04777670336494566  0.765590817386478  0.8616692448405523  1.0000
  O   O7        1.0  0.7562570535480493  0.15402922529675678  0.5970617386158565  1.0000
  O   O8        1.0  0.9045835222333207  0.43726493313037906  0.34284431887719435  1.0000
