data_image0
_chemical_formula_structural       Zr4O8
_chemical_formula_sum              "Zr4 O8"
_cell_length_a       5.1539878367877705
_cell_length_b       5.22810872
_cell_length_c       5.329696159145639
_cell_angle_alpha    90.0
_cell_angle_beta     99.43692258379697
_cell_angle_gamma    90.0

_space_group_name_H-M_alt    "P 1"
_space_group_IT_number       1

loop_
  _space_group_symop_operation_xyz
  'x, y, z'

loop_
  _atom_site_type_symbol
  _atom_site_label
  _atom_site_symmetry_multiplicity
  _atom_site_fract_x
  _atom_site_fract_y
  _atom_site_fract_z
  _atom_site_occupancy
  Zr  Zr1       1.0  0.18143436217105968  0.9777219901181333  0.7997925273639392  1.0000
  Zr  Zr2       1.0  0.3750266465352565  0.5419843116725298  0.7318879988629541  1.0000
  Zr  Zr3       1.0  0.7759087375404063  0.7500777214883829  0.828637104870821  1.0000
  Zr  Zr4       1.0  0.5847654678760805  0.27001923581224396  0.6867319174160982  1.0000
  O   O1        1.0  0.6249545960757885  0.6293589065969449  0.5405974581064772  1.0000
  O   O2        1.0  0.03815725206643328  0.06777496514453496  0.8832630881500352  1.0000
  O   O3        1.0  0.9753355510597714  0.5468687563491699  0.054306534786167315  1.0000
  O   O4        1.0  0.07185003855233951  0.46064168924975135  0.031880338632721106  1.0000
  O   O5        1.0  0.15216975681503797  0.9781696419343646  0.41586348681924057  1.0000
  O   O6        1.0  0.9908412028690909  0.06146104944888364  0.922252813447241  1.0000
  O   O7        1.0  0.45759793872325005  0.23087282794408637  0.47170851629516974  1.0000
  O   O8        1.0  0.806140141226086  0.7030496601471468  0.7844321624146029  1.0000
