data_image0
_chemical_formula_structural       Zr4O8
_chemical_formula_sum              "Zr4 O8"
_cell_length_a       5.1539878367877705
_cell_length_b       5.22810872
_cell_length_c       5.329696159145639
_cell_angle_alpha    90.0
_cell_angle_beta     99.43692258379697
_cell_angle_gamma    90.0

_space_group_name_H-M_alt    "P 1"
_space_group_IT_number       1

loop_
  _space_group_symop_operation_xyz
  'x, y, z'

loop_
  _atom_site_type_symbol
  _atom_site_label
  _atom_site_symmetry_multiplicity
  _atom_site_fract_x
  _atom_site_fract_y
  _atom_site_fract_z
  _atom_site_occupancy
  Zr  Zr1       1.0  0.4454038577219386  0.46623937359372825  0.867912052164387  1.0000
  Zr  Zr2       1.0  0.2252478602476664  0.34181162210108873  0.48819613526611505  1.0000
  Zr  Zr3       1.0  0.13304626302704925  0.9381097226321125  0.04630946297890759  1.0000
  Zr  Zr4       1.0  0.10914890981043213  0.667358208443896  0.15027982894744873  1.0000
  O   O1        1.0  0.09588639021416867  0.05459207975082947  0.9265035454883623  1.0000
  O   O2        1.0  0.514137624178165  0.18546087996572158  0.8963754043622374  1.0000
  O   O3        1.0  0.9580676978690352  0.9885065974800828  0.46159591630908636  1.0000
  O   O4        1.0  0.30467408993312983  0.7171397483149367  0.11297117298731862  1.0000
  O   O5        1.0  0.9965105513195027  0.6577408581413833  0.8144280932375914  1.0000
  O   O6        1.0  0.7427743342232844  0.7251294567965982  0.2061272320023111  1.0000
  O   O7        1.0  0.0959435446950101  0.6302270601519027  0.3819039726626201  1.0000
  O   O8        1.0  0.17461095980213415  0.21115632401212991  0.8776181976051356  1.0000
