data_image0
_chemical_formula_structural       Zr4O8
_chemical_formula_sum              "Zr4 O8"
_cell_length_a       5.1539878367877705
_cell_length_b       5.22810872
_cell_length_c       5.329696159145639
_cell_angle_alpha    90.0
_cell_angle_beta     99.43692258379697
_cell_angle_gamma    90.0

_space_group_name_H-M_alt    "P 1"
_space_group_IT_number       1

loop_
  _space_group_symop_operation_xyz
  'x, y, z'

loop_
  _atom_site_type_symbol
  _atom_site_label
  _atom_site_symmetry_multiplicity
  _atom_site_fract_x
  _atom_site_fract_y
  _atom_site_fract_z
  _atom_site_occupancy
  Zr  Zr1       1.0  0.9358836468701126  0.0577337183078388  0.5195686573179374  1.0000
  Zr  Zr2       1.0  0.619601456030547  0.08145873458398611  0.6142068083902736  1.0000
  Zr  Zr3       1.0  0.1374876071797857  0.23487444129622226  0.31795253055307704  1.0000
  Zr  Zr4       1.0  0.4492359507863366  0.03947415197051285  0.44187832845623287  1.0000
  O   O1        1.0  0.35699872303652036  0.6146129695373004  0.052003030301285946  1.0000
  O   O2        1.0  0.555463096703654  0.5589607470905946  0.05619684308575579  1.0000
  O   O3        1.0  0.8118720406420721  0.8560542534263149  0.8554266498609318  1.0000
  O   O4        1.0  0.4415427655681441  0.25890519022207314  0.8710490861903004  1.0000
  O   O5        1.0  0.3550639593635694  0.10756993598810993  0.8741220979628035  1.0000
  O   O6        1.0  0.3344103714238753  0.6666734145268371  0.8791261944717323  1.0000
  O   O7        1.0  0.7846542304373376  0.6760099298265239  0.7299891252721835  1.0000
  O   O8        1.0  0.12014423737914504  0.0903350975562276  0.945625407903739  1.0000
