data_image0
_chemical_formula_structural       Zr4O8
_chemical_formula_sum              "Zr4 O8"
_cell_length_a       5.1539878367877705
_cell_length_b       5.22810872
_cell_length_c       5.329696159145639
_cell_angle_alpha    90.0
_cell_angle_beta     99.43692258379697
_cell_angle_gamma    90.0

_space_group_name_H-M_alt    "P 1"
_space_group_IT_number       1

loop_
  _space_group_symop_operation_xyz
  'x, y, z'

loop_
  _atom_site_type_symbol
  _atom_site_label
  _atom_site_symmetry_multiplicity
  _atom_site_fract_x
  _atom_site_fract_y
  _atom_site_fract_z
  _atom_site_occupancy
  Zr  Zr1       1.0  0.8036673489105848  0.20754115005352602  0.49443054741547754  1.0000
  Zr  Zr2       1.0  0.35772446810852543  0.947965480390085  0.3100969678769747  1.0000
  Zr  Zr3       1.0  0.891099143125281  0.6430570661356931  0.024002843476253588  1.0000
  Zr  Zr4       1.0  0.17812608833222487  0.19730997130587147  0.5460815522574958  1.0000
  O   O1        1.0  0.6088447090439626  0.8331003640087502  0.11116506535264747  1.0000
  O   O2        1.0  0.29321831280091004  0.8174550568987673  0.9476276686350502  1.0000
  O   O3        1.0  0.5907076883064128  0.7102460368538215  0.23530451465401114  1.0000
  O   O4        1.0  0.1870918018534926  0.07537642826702395  0.6150124147936413  1.0000
  O   O5        1.0  0.8261892862330082  0.1835928735951473  0.9014974916093017  1.0000
  O   O6        1.0  0.9598386864381396  0.04329398782920446  0.3205476526932216  1.0000
  O   O7        1.0  0.46975207528238755  0.43145868832202083  0.41106498486452736  1.0000
  O   O8        1.0  0.14620987575149158  0.7235559065718462  0.39702284947615674  1.0000
