data_image0
_chemical_formula_structural       Zr4O8
_chemical_formula_sum              "Zr4 O8"
_cell_length_a       5.1539878367877705
_cell_length_b       5.22810872
_cell_length_c       5.329696159145639
_cell_angle_alpha    90.0
_cell_angle_beta     99.43692258379697
_cell_angle_gamma    90.0

_space_group_name_H-M_alt    "P 1"
_space_group_IT_number       1

loop_
  _space_group_symop_operation_xyz
  'x, y, z'

loop_
  _atom_site_type_symbol
  _atom_site_label
  _atom_site_symmetry_multiplicity
  _atom_site_fract_x
  _atom_site_fract_y
  _atom_site_fract_z
  _atom_site_occupancy
  Zr  Zr1       1.0  0.020204644880433165  0.06012360313659748  0.9418834371128444  1.0000
  Zr  Zr2       1.0  0.31193737937291033  0.6928340603805463  0.5635829378516539  1.0000
  Zr  Zr3       1.0  0.17410831261682347  0.7340757661662547  0.1903884702234766  1.0000
  Zr  Zr4       1.0  0.35206192552504245  0.02976822705032145  0.65520612552106  1.0000
  O   O1        1.0  0.9486879979031144  0.9775354355621353  0.6643712008535587  1.0000
  O   O2        1.0  0.7719359631978606  0.5843147631600232  0.0009488378254798313  1.0000
  O   O3        1.0  0.8908662859150103  0.015937193946570005  0.44937800879800704  1.0000
  O   O4        1.0  0.7017075233405805  0.7261038225063601  0.6624752434043697  1.0000
  O   O5        1.0  0.6469047731509825  0.8442764153742832  0.4400967866285015  1.0000
  O   O6        1.0  0.7018256066025046  0.05387781292806437  0.07135440315242647  1.0000
  O   O7        1.0  0.07682987204936609  0.5660550705160752  0.13305688716324937  1.0000
  O   O8        1.0  0.4004646851489837  0.4166781930821166  0.0221374432645991  1.0000
