data_image0
_chemical_formula_structural       Zr4O8
_chemical_formula_sum              "Zr4 O8"
_cell_length_a       5.1539878367877705
_cell_length_b       5.22810872
_cell_length_c       5.329696159145639
_cell_angle_alpha    90.0
_cell_angle_beta     99.43692258379697
_cell_angle_gamma    90.0

_space_group_name_H-M_alt    "P 1"
_space_group_IT_number       1

loop_
  _space_group_symop_operation_xyz
  'x, y, z'

loop_
  _atom_site_type_symbol
  _atom_site_label
  _atom_site_symmetry_multiplicity
  _atom_site_fract_x
  _atom_site_fract_y
  _atom_site_fract_z
  _atom_site_occupancy
  Zr  Zr1       1.0  0.2602567169881489  0.13119811179798901  0.25567513384157126  1.0000
  Zr  Zr2       1.0  0.09877272487455357  0.37381089291303127  0.9022375367246944  1.0000
  Zr  Zr3       1.0  0.5105915696073939  0.7304172309205033  0.6766819999234635  1.0000
  Zr  Zr4       1.0  0.3137981915852741  0.7489485039959645  0.023608488323313637  1.0000
  O   O1        1.0  0.7155953799715249  0.47066420431063705  0.05963269206091937  1.0000
  O   O2        1.0  0.861490149985559  0.3345836529999753  0.3590626067890055  1.0000
  O   O3        1.0  0.5931878926277818  0.021991677156011136  0.45013646920933326  1.0000
  O   O4        1.0  0.5613307811887918  0.9446382438247927  0.3968676996664371  1.0000
  O   O5        1.0  0.7075347318022795  0.9980926074498804  0.7495516893928595  1.0000
  O   O6        1.0  0.555426719524668  0.5279397340719711  0.45960291058910396  1.0000
  O   O7        1.0  0.9683108278076311  0.03882020898127525  0.32626520034184736  1.0000
  O   O8        1.0  0.7334279919275417  0.13169044164381205  0.24270256362925546  1.0000
