data_image0
_chemical_formula_structural       Zr4O8
_chemical_formula_sum              "Zr4 O8"
_cell_length_a       5.1539878367877705
_cell_length_b       5.22810872
_cell_length_c       5.329696159145639
_cell_angle_alpha    90.0
_cell_angle_beta     99.43692258379697
_cell_angle_gamma    90.0

_space_group_name_H-M_alt    "P 1"
_space_group_IT_number       1

loop_
  _space_group_symop_operation_xyz
  'x, y, z'

loop_
  _atom_site_type_symbol
  _atom_site_label
  _atom_site_symmetry_multiplicity
  _atom_site_fract_x
  _atom_site_fract_y
  _atom_site_fract_z
  _atom_site_occupancy
  Zr  Zr1       1.0  0.04195991293845047  0.6850222549846681  0.34724882631116827  1.0000
  Zr  Zr2       1.0  0.11215053006645626  0.8014404043378107  0.1790913749266796  1.0000
  Zr  Zr3       1.0  0.9455845725120113  0.6818194495547782  0.974094638625262  1.0000
  Zr  Zr4       1.0  0.3808904728364618  0.9123163989787324  0.846314105011988  1.0000
  O   O1        1.0  0.9243364690028821  0.5583864065722324  0.09849388473548015  1.0000
  O   O2        1.0  0.004763252462064216  0.24194844847361896  0.46695886679849785  1.0000
  O   O3        1.0  0.2470649002339016  0.6492667267374448  0.6454320708806449  1.0000
  O   O4        1.0  0.11189969314709813  0.9054858509569854  0.3485384118706065  1.0000
  O   O5        1.0  0.850610247646296  0.676167576817063  0.4267352252283274  1.0000
  O   O6        1.0  0.5263783050423569  0.10188787643963515  0.5619340513482474  1.0000
  O   O7        1.0  0.9754713534399095  0.7109816870714614  0.1879296338369798  1.0000
  O   O8        1.0  0.9297173907211755  0.1856901733076768  0.8411159357835951  1.0000
