data_image0
_chemical_formula_structural       Zr4O8
_chemical_formula_sum              "Zr4 O8"
_cell_length_a       5.1539878367877705
_cell_length_b       5.22810872
_cell_length_c       5.329696159145639
_cell_angle_alpha    90.0
_cell_angle_beta     99.43692258379697
_cell_angle_gamma    90.0

_space_group_name_H-M_alt    "P 1"
_space_group_IT_number       1

loop_
  _space_group_symop_operation_xyz
  'x, y, z'

loop_
  _atom_site_type_symbol
  _atom_site_label
  _atom_site_symmetry_multiplicity
  _atom_site_fract_x
  _atom_site_fract_y
  _atom_site_fract_z
  _atom_site_occupancy
  Zr  Zr1       1.0  0.24054293786191216  0.7270739506555071  0.5764287587362507  1.0000
  Zr  Zr2       1.0  0.7542155162453721  0.5661757381612489  0.9113608324625186  1.0000
  Zr  Zr3       1.0  0.8150138851925908  0.40552425635317935  0.24045424744113708  1.0000
  Zr  Zr4       1.0  0.6298049369559791  0.22653253167538345  0.6335406362688261  1.0000
  O   O1        1.0  0.14382089125803432  0.4390714251196819  0.7532108770448502  1.0000
  O   O2        1.0  0.2226457645670532  0.34154319517697473  0.9726920015485199  1.0000
  O   O3        1.0  0.3071213823780867  0.855081712700791  0.7690743876981561  1.0000
  O   O4        1.0  0.2050283172028422  0.032993090071460784  0.6654459014063789  1.0000
  O   O5        1.0  0.0466911303907942  0.7342963082384841  0.6702781721282065  1.0000
  O   O6        1.0  0.5196160806932824  0.36902632713105277  0.5701860266733849  1.0000
  O   O7        1.0  0.31315648196863566  0.6002717955362318  0.5918428237510014  1.0000
  O   O8        1.0  0.8926885335524979  0.22252676591008935  0.21701264324222613  1.0000
