data_image0
_chemical_formula_structural       Zr4O8
_chemical_formula_sum              "Zr4 O8"
_cell_length_a       5.1539878367877705
_cell_length_b       5.22810872
_cell_length_c       5.329696159145639
_cell_angle_alpha    90.0
_cell_angle_beta     99.43692258379697
_cell_angle_gamma    90.0

_space_group_name_H-M_alt    "P 1"
_space_group_IT_number       1

loop_
  _space_group_symop_operation_xyz
  'x, y, z'

loop_
  _atom_site_type_symbol
  _atom_site_label
  _atom_site_symmetry_multiplicity
  _atom_site_fract_x
  _atom_site_fract_y
  _atom_site_fract_z
  _atom_site_occupancy
  Zr  Zr1       1.0  0.5219986392946367  0.7745155028201065  0.8214293647326674  1.0000
  Zr  Zr2       1.0  0.46487403059967214  0.9012553806901735  0.6477304338723116  1.0000
  Zr  Zr3       1.0  0.9875394024333195  0.32937364410280523  0.4288873088696328  1.0000
  Zr  Zr4       1.0  0.3491504558362952  0.8654644745062914  0.4035561009620736  1.0000
  O   O1        1.0  0.40564085861806376  0.7747891740878927  0.5722653237536974  1.0000
  O   O2        1.0  0.20543446320227332  0.22165073035387461  0.3789293534435636  1.0000
  O   O3        1.0  0.2425441734689111  0.5437701073777346  0.7348968867361041  1.0000
  O   O4        1.0  0.11994817406332459  0.2277491324175509  0.461220498947311  1.0000
  O   O5        1.0  0.21313997647189176  0.48825876627605425  0.35815273342965526  1.0000
  O   O6        1.0  0.7509266078304755  0.27750203076680435  0.8024322591783335  1.0000
  O   O7        1.0  0.7712143411092494  0.9423667303689207  0.2749084170503906  1.0000
  O   O8        1.0  0.7046463670600112  0.3372229467518508  0.31511493630710063  1.0000
