data_image0
_chemical_formula_structural       Zr4O8
_chemical_formula_sum              "Zr4 O8"
_cell_length_a       5.1539878367877705
_cell_length_b       5.22810872
_cell_length_c       5.329696159145639
_cell_angle_alpha    90.0
_cell_angle_beta     99.43692258379697
_cell_angle_gamma    90.0

_space_group_name_H-M_alt    "P 1"
_space_group_IT_number       1

loop_
  _space_group_symop_operation_xyz
  'x, y, z'

loop_
  _atom_site_type_symbol
  _atom_site_label
  _atom_site_symmetry_multiplicity
  _atom_site_fract_x
  _atom_site_fract_y
  _atom_site_fract_z
  _atom_site_occupancy
  Zr  Zr1       1.0  0.7809801076922005  0.004274362586613956  0.879832409260831  1.0000
  Zr  Zr2       1.0  0.6767507435388085  0.6356830237410467  0.6447056868748688  1.0000
  Zr  Zr3       1.0  0.24812427849149096  0.3699694388222561  0.4681937222196524  1.0000
  Zr  Zr4       1.0  0.8555477270174237  0.4360240326677074  0.2502891819197508  1.0000
  O   O1        1.0  0.012647528227356375  0.5775361860610158  0.9599092847377335  1.0000
  O   O2        1.0  0.1666556401396604  0.40465833053508504  0.8686862119674705  1.0000
  O   O3        1.0  0.055709179583523394  0.6357816749351954  0.9382084077542032  1.0000
  O   O4        1.0  0.015073763998493916  0.941916965613963  0.16852520440734509  1.0000
  O   O5        1.0  0.4611349962639224  0.5155867011355326  0.8799637592988439  1.0000
  O   O6        1.0  0.594942103020605  0.8995114317347719  0.22596243933192772  1.0000
  O   O7        1.0  0.20741230365610885  0.9742430440622307  0.5902947510498855  1.0000
  O   O8        1.0  0.10526640008298083  0.7892952227680716  0.9999165415404256  1.0000
