data_image0
_chemical_formula_structural       Zr4O8
_chemical_formula_sum              "Zr4 O8"
_cell_length_a       5.1539878367877705
_cell_length_b       5.22810872
_cell_length_c       5.329696159145639
_cell_angle_alpha    90.0
_cell_angle_beta     99.43692258379697
_cell_angle_gamma    90.0

_space_group_name_H-M_alt    "P 1"
_space_group_IT_number       1

loop_
  _space_group_symop_operation_xyz
  'x, y, z'

loop_
  _atom_site_type_symbol
  _atom_site_label
  _atom_site_symmetry_multiplicity
  _atom_site_fract_x
  _atom_site_fract_y
  _atom_site_fract_z
  _atom_site_occupancy
  Zr  Zr1       1.0  0.6157639054016979  0.7960452712528845  0.186067273517285  1.0000
  Zr  Zr2       1.0  0.4174881440860698  0.16074238483330205  0.8192114920043547  1.0000
  Zr  Zr3       1.0  0.2808788288473032  0.45516901413345767  0.1497083630954803  1.0000
  Zr  Zr4       1.0  0.07438948867634888  0.9830254963116758  0.5745217815255952  1.0000
  O   O1        1.0  0.06875049873417716  0.5574952140176457  0.5146707148693643  1.0000
  O   O2        1.0  0.6877367901953679  0.11857212590217792  0.6734902426414591  1.0000
  O   O3        1.0  0.5708295885133019  0.05710335280787415  0.6132356942648229  1.0000
  O   O4        1.0  0.07329976800141935  0.9715890232358078  0.46289908152784065  1.0000
  O   O5        1.0  0.6515295691980114  0.9794194867997899  0.3889967628429929  1.0000
  O   O6        1.0  0.5758295066484536  0.9399881323545078  0.5909595324443266  1.0000
  O   O7        1.0  0.9458176661956141  0.6765682944253415  0.937582880736656  1.0000
  O   O8        1.0  0.5553393604624821  0.6396374453292637  0.0482593325441254  1.0000
