data_image0
_chemical_formula_structural       Zr4O8
_chemical_formula_sum              "Zr4 O8"
_cell_length_a       5.1539878367877705
_cell_length_b       5.22810872
_cell_length_c       5.329696159145639
_cell_angle_alpha    90.0
_cell_angle_beta     99.43692258379697
_cell_angle_gamma    90.0

_space_group_name_H-M_alt    "P 1"
_space_group_IT_number       1

loop_
  _space_group_symop_operation_xyz
  'x, y, z'

loop_
  _atom_site_type_symbol
  _atom_site_label
  _atom_site_symmetry_multiplicity
  _atom_site_fract_x
  _atom_site_fract_y
  _atom_site_fract_z
  _atom_site_occupancy
  Zr  Zr1       1.0  0.8567032816494606  0.5518245947214115  0.09024914945506524  1.0000
  Zr  Zr2       1.0  0.24100166759459807  0.5622146950515726  0.24864873312190383  1.0000
  Zr  Zr3       1.0  0.6856885620249462  0.03695325058770749  0.7539176207175178  1.0000
  Zr  Zr4       1.0  0.28081969372739735  0.9332994923005042  0.9296633067413218  1.0000
  O   O1        1.0  0.7699293933262581  0.09613147270414046  0.5973346187528462  1.0000
  O   O2        1.0  0.059978967666367566  0.7135445443828843  0.42692192352265934  1.0000
  O   O3        1.0  0.018634419184444084  0.8471137344244966  0.1898098255733096  1.0000
  O   O4        1.0  0.32428530312748904  0.2908523068615061  0.20629878613351949  1.0000
  O   O5        1.0  0.7228182094790574  0.5888960630147508  0.7050596876579291  1.0000
  O   O6        1.0  0.2653228965527745  0.5596196143881755  0.7550909064056249  1.0000
  O   O7        1.0  0.7273554804088027  0.03220333564104472  0.6856387592831474  1.0000
  O   O8        1.0  0.03065622365099685  0.5053201756312315  0.8853564776635121  1.0000
