data_image0
_chemical_formula_structural       Zr4O8
_chemical_formula_sum              "Zr4 O8"
_cell_length_a       5.1539878367877705
_cell_length_b       5.22810872
_cell_length_c       5.329696159145639
_cell_angle_alpha    90.0
_cell_angle_beta     99.43692258379697
_cell_angle_gamma    90.0

_space_group_name_H-M_alt    "P 1"
_space_group_IT_number       1

loop_
  _space_group_symop_operation_xyz
  'x, y, z'

loop_
  _atom_site_type_symbol
  _atom_site_label
  _atom_site_symmetry_multiplicity
  _atom_site_fract_x
  _atom_site_fract_y
  _atom_site_fract_z
  _atom_site_occupancy
  Zr  Zr1       1.0  0.9890760659304538  0.2330118722563661  0.3538374851681736  1.0000
  Zr  Zr2       1.0  0.8341531342729276  0.9378385619995555  0.23365880021619567  1.0000
  Zr  Zr3       1.0  0.446026782629918  0.5107747486468159  0.4496113373669641  1.0000
  Zr  Zr4       1.0  0.8005697810663737  0.20255071707810046  0.307012754575271  1.0000
  O   O1        1.0  0.2288782471957873  0.526355342537375  0.555992141340262  1.0000
  O   O2        1.0  0.3613516847120073  0.3375383721929559  0.6389054308592748  1.0000
  O   O3        1.0  0.543085363709537  0.29343544580357817  0.10245343625078984  1.0000
  O   O4        1.0  0.4114177051085903  0.5455603304963175  0.18639655525227816  1.0000
  O   O5        1.0  0.6000422872038514  0.6782449088583782  0.5430144088192321  1.0000
  O   O6        1.0  0.06505478930750286  0.8110559215857904  0.3990398767563974  1.0000
  O   O7        1.0  0.5546439755952797  0.9095428658509377  0.5249141809538855  1.0000
  O   O8        1.0  0.8424407237925955  0.4334239898308212  0.8552560076073625  1.0000
