data_image0
_chemical_formula_structural       Zr4O8
_chemical_formula_sum              "Zr4 O8"
_cell_length_a       5.1539878367877705
_cell_length_b       5.22810872
_cell_length_c       5.329696159145639
_cell_angle_alpha    90.0
_cell_angle_beta     99.43692258379697
_cell_angle_gamma    90.0

_space_group_name_H-M_alt    "P 1"
_space_group_IT_number       1

loop_
  _space_group_symop_operation_xyz
  'x, y, z'

loop_
  _atom_site_type_symbol
  _atom_site_label
  _atom_site_symmetry_multiplicity
  _atom_site_fract_x
  _atom_site_fract_y
  _atom_site_fract_z
  _atom_site_occupancy
  Zr  Zr1       1.0  0.22045024333714025  0.27383504561928795  0.5702230841092262  1.0000
  Zr  Zr2       1.0  0.08750526211516885  0.35504125885075766  0.28267581785735096  1.0000
  Zr  Zr3       1.0  0.4073934018359946  0.3364226748612973  0.1739799035311531  1.0000
  Zr  Zr4       1.0  0.17729524365736404  0.7377848762534498  0.026199979332343748  1.0000
  O   O1        1.0  0.9229566540534364  0.29969232835561854  0.9167798498109896  1.0000
  O   O2        1.0  0.6250734376839837  0.23818179866209732  0.12446976409721477  1.0000
  O   O3        1.0  0.1914606472965925  0.7755753136059864  0.38326199862991217  1.0000
  O   O4        1.0  0.009426655102515724  0.4072620599334411  0.5596254968477972  1.0000
  O   O5        1.0  0.5981559523745783  0.6123844032244263  0.8902508400839722  1.0000
  O   O6        1.0  0.5538479151333711  0.23653106168960392  0.940720286437406  1.0000
  O   O7        1.0  0.3076539845345625  0.397643803393132  0.5611063889416776  1.0000
  O   O8        1.0  0.6296370706806158  0.40613959380740994  0.19700345081105686  1.0000
