data_image0
_chemical_formula_structural       Zr4O8
_chemical_formula_sum              "Zr4 O8"
_cell_length_a       5.1539878367877705
_cell_length_b       5.22810872
_cell_length_c       5.329696159145639
_cell_angle_alpha    90.0
_cell_angle_beta     99.43692258379697
_cell_angle_gamma    90.0

_space_group_name_H-M_alt    "P 1"
_space_group_IT_number       1

loop_
  _space_group_symop_operation_xyz
  'x, y, z'

loop_
  _atom_site_type_symbol
  _atom_site_label
  _atom_site_symmetry_multiplicity
  _atom_site_fract_x
  _atom_site_fract_y
  _atom_site_fract_z
  _atom_site_occupancy
  Zr  Zr1       1.0  0.6955358160634333  0.6993971237629317  0.06090068238937363  1.0000
  Zr  Zr2       1.0  0.2277346319411926  0.3416073392052228  0.24257245378094439  1.0000
  Zr  Zr3       1.0  0.8446512252100247  0.24935081278417925  0.7854437613029699  1.0000
  Zr  Zr4       1.0  0.020486974785016265  0.667192700781869  0.506984846730834  1.0000
  O   O1        1.0  0.7601137342912558  0.17150327395403053  0.16765576554896988  1.0000
  O   O2        1.0  0.9959345886731796  0.8150131894952466  0.5705242708562892  1.0000
  O   O3        1.0  0.01687190422412499  0.23842399879466925  0.6893483244815304  1.0000
  O   O4        1.0  0.34250899155174963  0.23279610080810897  0.10044275339578945  1.0000
  O   O5        1.0  0.570316763268675  0.10049178517425617  0.9563286186041893  1.0000
  O   O6        1.0  0.800559776725926  0.888660601795145  0.17820385322260845  1.0000
  O   O7        1.0  0.19305509047396008  0.22080075082117778  0.04496049244943379  1.0000
  O   O8        1.0  0.07541018561299762  0.15123621556394973  0.4365875347152297  1.0000
