data_image0
_chemical_formula_structural       Zr4O8
_chemical_formula_sum              "Zr4 O8"
_cell_length_a       5.1539878367877705
_cell_length_b       5.22810872
_cell_length_c       5.329696159145639
_cell_angle_alpha    90.0
_cell_angle_beta     99.43692258379697
_cell_angle_gamma    90.0

_space_group_name_H-M_alt    "P 1"
_space_group_IT_number       1

loop_
  _space_group_symop_operation_xyz
  'x, y, z'

loop_
  _atom_site_type_symbol
  _atom_site_label
  _atom_site_symmetry_multiplicity
  _atom_site_fract_x
  _atom_site_fract_y
  _atom_site_fract_z
  _atom_site_occupancy
  Zr  Zr1       1.0  0.8501447716926513  0.5010174402603464  0.8803867006420347  1.0000
  Zr  Zr2       1.0  0.7787379740488776  0.3593246762586134  0.6502538143413492  1.0000
  Zr  Zr3       1.0  0.3828780880714929  0.07263696139007081  0.23925155565635237  1.0000
  Zr  Zr4       1.0  0.22339178175577779  0.7773770337144672  0.9650060331420818  1.0000
  O   O1        1.0  0.30543766645983084  0.4072762152971343  0.9658954883963489  1.0000
  O   O2        1.0  0.1765828863526977  0.808417474194556  0.30814059620319156  1.0000
  O   O3        1.0  0.34645950878168463  0.35916511131042483  0.6702062151758028  1.0000
  O   O4        1.0  0.49537396010926926  0.3737532212443142  0.969817268055575  1.0000
  O   O5        1.0  0.03953681496685135  0.8573173309499111  0.4938590259804627  1.0000
  O   O6        1.0  0.1263702766166901  0.5214521727099495  0.44299013562761  1.0000
  O   O7        1.0  0.5418596948344021  0.05692460880189998  0.022582393519517296  1.0000
  O   O8        1.0  0.5568850999510939  0.4863057387702865  0.7823266276200282  1.0000
