data_image0
_chemical_formula_structural       Zr4O8
_chemical_formula_sum              "Zr4 O8"
_cell_length_a       5.1539878367877705
_cell_length_b       5.22810872
_cell_length_c       5.329696159145639
_cell_angle_alpha    90.0
_cell_angle_beta     99.43692258379697
_cell_angle_gamma    90.0

_space_group_name_H-M_alt    "P 1"
_space_group_IT_number       1

loop_
  _space_group_symop_operation_xyz
  'x, y, z'

loop_
  _atom_site_type_symbol
  _atom_site_label
  _atom_site_symmetry_multiplicity
  _atom_site_fract_x
  _atom_site_fract_y
  _atom_site_fract_z
  _atom_site_occupancy
  Zr  Zr1       1.0  0.4074328614246294  0.31408910859885175  0.2256103397795961  1.0000
  Zr  Zr2       1.0  0.7583850081772425  0.1325036495120404  0.6447870788280339  1.0000
  Zr  Zr3       1.0  0.7894180841774794  0.02407837834698867  0.13747431899839668  1.0000
  Zr  Zr4       1.0  0.02368747360543133  0.6306150368030501  0.21176532714378737  1.0000
  O   O1        1.0  0.026371492836055666  0.6493090042711245  0.6180978568113056  1.0000
  O   O2        1.0  0.41160531581457604  0.5880800636259096  0.9612239561927787  1.0000
  O   O3        1.0  0.007386661980270048  0.8424031096310003  0.6301500249618108  1.0000
  O   O4        1.0  0.16011112851609788  0.8531413842614057  0.1384880347507469  1.0000
  O   O5        1.0  0.22033473389943506  0.2812771926854083  0.3513589408355102  1.0000
  O   O6        1.0  0.09221815053577131  0.8035571592063349  0.20657189719363545  1.0000
  O   O7        1.0  0.6119788784282764  0.7927037768643981  0.022289260724633664  1.0000
  O   O8        1.0  0.3646389626465947  0.5055940611893419  0.9303883209809785  1.0000
