data_image0
_chemical_formula_structural       Zr4O8
_chemical_formula_sum              "Zr4 O8"
_cell_length_a       5.1539878367877705
_cell_length_b       5.22810872
_cell_length_c       5.329696159145639
_cell_angle_alpha    90.0
_cell_angle_beta     99.43692258379697
_cell_angle_gamma    90.0

_space_group_name_H-M_alt    "P 1"
_space_group_IT_number       1

loop_
  _space_group_symop_operation_xyz
  'x, y, z'

loop_
  _atom_site_type_symbol
  _atom_site_label
  _atom_site_symmetry_multiplicity
  _atom_site_fract_x
  _atom_site_fract_y
  _atom_site_fract_z
  _atom_site_occupancy
  Zr  Zr1       1.0  0.3299841231861129  0.23040082698174125  0.18309778219213868  1.0000
  Zr  Zr2       1.0  0.7370522864565778  0.759051573696981  0.7793995951208577  1.0000
  Zr  Zr3       1.0  0.5997342121290519  0.85252996375489  0.06359932020085246  1.0000
  Zr  Zr4       1.0  0.3015656202223922  0.32936467021348026  0.7472378080439643  1.0000
  O   O1        1.0  0.8660597852908509  0.4528625597090681  0.007656546658243002  1.0000
  O   O2        1.0  0.03176884866809182  0.04702346102045141  0.9575210560847266  1.0000
  O   O3        1.0  0.3681362394939609  0.7160739727376324  0.9948397669474502  1.0000
  O   O4        1.0  0.18781146245673597  0.3476832464229904  0.5105530073442335  1.0000
  O   O5        1.0  0.8576234841427564  0.1396062533697915  0.22494537481804855  1.0000
  O   O6        1.0  0.7539717795031606  0.2875069580523828  0.834625408740898  1.0000
  O   O7        1.0  0.7789513654708706  0.0129773125686512  0.8516533322307822  1.0000
  O   O8        1.0  0.5787727726297867  0.31144146075524937  0.19273256644184755  1.0000
