data_image0
_chemical_formula_structural       Zr4O8
_chemical_formula_sum              "Zr4 O8"
_cell_length_a       5.1539878367877705
_cell_length_b       5.22810872
_cell_length_c       5.329696159145639
_cell_angle_alpha    90.0
_cell_angle_beta     99.43692258379697
_cell_angle_gamma    90.0

_space_group_name_H-M_alt    "P 1"
_space_group_IT_number       1

loop_
  _space_group_symop_operation_xyz
  'x, y, z'

loop_
  _atom_site_type_symbol
  _atom_site_label
  _atom_site_symmetry_multiplicity
  _atom_site_fract_x
  _atom_site_fract_y
  _atom_site_fract_z
  _atom_site_occupancy
  Zr  Zr1       1.0  0.7558840672490907  0.3528139521231175  0.8399135987017372  1.0000
  Zr  Zr2       1.0  0.11253661355852973  0.5596733334633512  0.8919383026531502  1.0000
  Zr  Zr3       1.0  0.8436005241275595  0.6105200508405417  0.7133999211194215  1.0000
  Zr  Zr4       1.0  0.915250630128126  0.4072494606891581  0.2644131972817476  1.0000
  O   O1        1.0  0.695946217662204  0.3603191915022368  0.7410428148231638  1.0000
  O   O2        1.0  0.6229811850919749  0.14979119745110125  0.8891469537376295  1.0000
  O   O3        1.0  0.2341316966480349  0.39095162711968356  0.0168108028508005  1.0000
  O   O4        1.0  0.35414115106295796  0.26868579594633246  0.01960272179535849  1.0000
  O   O5        1.0  0.049912846324929205  0.6462512250125982  0.28472573168129145  1.0000
  O   O6        1.0  0.4988590937485533  0.8841522543217444  0.39112482372253865  1.0000
  O   O7        1.0  0.9586009358179144  0.6841159018972789  0.535445422784754  1.0000
  O   O8        1.0  0.7783691464361815  0.6778686347867051  0.7414228919875718  1.0000
