data_image0
_chemical_formula_structural       Zr4O8
_chemical_formula_sum              "Zr4 O8"
_cell_length_a       5.1539878367877705
_cell_length_b       5.22810872
_cell_length_c       5.329696159145639
_cell_angle_alpha    90.0
_cell_angle_beta     99.43692258379697
_cell_angle_gamma    90.0

_space_group_name_H-M_alt    "P 1"
_space_group_IT_number       1

loop_
  _space_group_symop_operation_xyz
  'x, y, z'

loop_
  _atom_site_type_symbol
  _atom_site_label
  _atom_site_symmetry_multiplicity
  _atom_site_fract_x
  _atom_site_fract_y
  _atom_site_fract_z
  _atom_site_occupancy
  Zr  Zr1       1.0  0.5281669595777245  0.8030656417508624  0.6401821947327733  1.0000
  Zr  Zr2       1.0  0.8820322861844456  0.4432876431286559  0.1538049245565265  1.0000
  Zr  Zr3       1.0  0.5642037365379604  0.7424480631296211  0.9764539957725393  1.0000
  Zr  Zr4       1.0  0.04344429542158812  0.10195268461412521  0.06582920634385214  1.0000
  O   O1        1.0  0.6217211477853013  0.837351181158283  0.8608629631803595  1.0000
  O   O2        1.0  0.912418739867098  0.05951191466359873  0.18716988216451558  1.0000
  O   O3        1.0  0.17830990749702735  0.5782153865387762  0.4830952087405542  1.0000
  O   O4        1.0  0.6320387616412724  0.7553540343533844  0.8356162739052735  1.0000
  O   O5        1.0  0.3618551885733817  0.24415622239953982  0.4827064213674923  1.0000
  O   O6        1.0  0.7556728205245928  0.28907601483585665  0.6786812301836962  1.0000
  O   O7        1.0  0.6513307748989785  0.05687341489412834  0.5253640248985683  1.0000
  O   O8        1.0  0.6434063338117717  0.6829440616181159  0.23805107325678065  1.0000
