data_image0
_chemical_formula_structural       Zr4O8
_chemical_formula_sum              "Zr4 O8"
_cell_length_a       5.1539878367877705
_cell_length_b       5.22810872
_cell_length_c       5.329696159145639
_cell_angle_alpha    90.0
_cell_angle_beta     99.43692258379697
_cell_angle_gamma    90.0

_space_group_name_H-M_alt    "P 1"
_space_group_IT_number       1

loop_
  _space_group_symop_operation_xyz
  'x, y, z'

loop_
  _atom_site_type_symbol
  _atom_site_label
  _atom_site_symmetry_multiplicity
  _atom_site_fract_x
  _atom_site_fract_y
  _atom_site_fract_z
  _atom_site_occupancy
  Zr  Zr1       1.0  0.9782883644213385  0.04629635402479604  0.9396452508951558  1.0000
  Zr  Zr2       1.0  0.2729034437919209  0.7397545691133658  0.6272049686853471  1.0000
  Zr  Zr3       1.0  0.6838686799229641  0.8223438091688262  0.7042491369425665  1.0000
  Zr  Zr4       1.0  0.831247798955745  0.934284219838184  0.5354900684779258  1.0000
  O   O1        1.0  0.18032352254776995  0.9889755729072967  0.7317970616572538  1.0000
  O   O2        1.0  0.7370556508922987  0.10560389005818394  0.8831023577283839  1.0000
  O   O3        1.0  0.9453457484164574  0.03480299596770209  0.9427213825670169  1.0000
  O   O4        1.0  0.03827577449014541  0.15590609013631251  0.9470613280601761  1.0000
  O   O5        1.0  0.757621079497234  0.22275083698999154  0.23566821006553695  1.0000
  O   O6        1.0  0.8842996164232981  0.5471356489672203  0.2280264324357364  1.0000
  O   O7        1.0  0.9455808872198128  0.06480085636980704  0.5756952304960485  1.0000
  O   O8        1.0  0.9830991916549296  0.1446445570739936  0.043238860985009175  1.0000
