data_image0
_chemical_formula_structural       Zr4O8
_chemical_formula_sum              "Zr4 O8"
_cell_length_a       5.1539878367877705
_cell_length_b       5.22810872
_cell_length_c       5.329696159145639
_cell_angle_alpha    90.0
_cell_angle_beta     99.43692258379697
_cell_angle_gamma    90.0

_space_group_name_H-M_alt    "P 1"
_space_group_IT_number       1

loop_
  _space_group_symop_operation_xyz
  'x, y, z'

loop_
  _atom_site_type_symbol
  _atom_site_label
  _atom_site_symmetry_multiplicity
  _atom_site_fract_x
  _atom_site_fract_y
  _atom_site_fract_z
  _atom_site_occupancy
  Zr  Zr1       1.0  0.03676390875910407  0.11406004474782883  0.2556576122094514  1.0000
  Zr  Zr2       1.0  0.6103776223500752  0.05514736590351177  0.959250191784415  1.0000
  Zr  Zr3       1.0  0.46233687698846815  0.8378216029203198  0.6420845013176928  1.0000
  Zr  Zr4       1.0  0.5961299807878566  0.09798623204263635  0.9477368612579791  1.0000
  O   O1        1.0  0.925443834600209  0.6349969714599446  0.9264691449755134  1.0000
  O   O2        1.0  0.22218100389806716  0.4715372056976328  0.3149411802118376  1.0000
  O   O3        1.0  0.8080621974602216  0.7480067173648803  0.7219917365035329  1.0000
  O   O4        1.0  0.810398777739465  0.37457269059005505  0.47005191644395516  1.0000
  O   O5        1.0  0.2597739250521882  0.9846268109235119  0.3652737246293043  1.0000
  O   O6        1.0  0.9445003752889036  0.981033204137006  0.5956140929611635  1.0000
  O   O7        1.0  0.2717162312686128  0.5295060830764768  0.7358318722366732  1.0000
  O   O8        1.0  0.8153181694990632  0.8737237929834194  0.2538011283208661  1.0000
