data_image0
_chemical_formula_structural       Zr4O8
_chemical_formula_sum              "Zr4 O8"
_cell_length_a       5.1539878367877705
_cell_length_b       5.22810872
_cell_length_c       5.329696159145639
_cell_angle_alpha    90.0
_cell_angle_beta     99.43692258379697
_cell_angle_gamma    90.0

_space_group_name_H-M_alt    "P 1"
_space_group_IT_number       1

loop_
  _space_group_symop_operation_xyz
  'x, y, z'

loop_
  _atom_site_type_symbol
  _atom_site_label
  _atom_site_symmetry_multiplicity
  _atom_site_fract_x
  _atom_site_fract_y
  _atom_site_fract_z
  _atom_site_occupancy
  Zr  Zr1       1.0  0.4679088024443658  0.6945778892140986  0.09440678428372706  1.0000
  Zr  Zr2       1.0  0.0601168110783874  0.056120464457212194  0.823678870850356  1.0000
  Zr  Zr3       1.0  0.20655626450015774  0.3208059095375777  0.6374655013438453  1.0000
  Zr  Zr4       1.0  0.24223531808481624  0.4762109891447279  0.2194194492665389  1.0000
  O   O1        1.0  0.8401079847046304  0.9348191310346872  0.6776910454585305  1.0000
  O   O2        1.0  0.8027432401229397  0.7632576273302831  0.3934295924865303  1.0000
  O   O3        1.0  0.972771453796156  0.03689286559740168  0.21826132703112489  1.0000
  O   O4        1.0  0.6231192864494552  0.9393394493197782  0.7631792266077149  1.0000
  O   O5        1.0  0.1684111937571089  0.2686602431887515  0.9314548783679646  1.0000
  O   O6        1.0  0.5905005165839476  0.21923299762481463  0.9288257004521672  1.0000
  O   O7        1.0  0.6116723206803343  0.7680457844377138  0.38935796508794596  1.0000
  O   O8        1.0  0.7719841447918832  0.8751540520113039  0.047603007425244925  1.0000
