data_image0
_chemical_formula_structural       Zr4O8
_chemical_formula_sum              "Zr4 O8"
_cell_length_a       5.1539878367877705
_cell_length_b       5.22810872
_cell_length_c       5.329696159145639
_cell_angle_alpha    90.0
_cell_angle_beta     99.43692258379697
_cell_angle_gamma    90.0

_space_group_name_H-M_alt    "P 1"
_space_group_IT_number       1

loop_
  _space_group_symop_operation_xyz
  'x, y, z'

loop_
  _atom_site_type_symbol
  _atom_site_label
  _atom_site_symmetry_multiplicity
  _atom_site_fract_x
  _atom_site_fract_y
  _atom_site_fract_z
  _atom_site_occupancy
  Zr  Zr1       1.0  0.00037897079937110334  0.640223262315617  0.658827010598996  1.0000
  Zr  Zr2       1.0  0.4155463982418137  0.7509067094789099  0.49689109755647465  1.0000
  Zr  Zr3       1.0  0.8244687346617017  0.8325274409230745  0.17904621866432802  1.0000
  Zr  Zr4       1.0  0.22284316001428373  0.23314753564896584  0.9962918492564952  1.0000
  O   O1        1.0  0.04921857537624419  0.9374798931172847  0.44419269956684815  1.0000
  O   O2        1.0  0.13199909283412126  0.6622053696518133  0.9276688684724146  1.0000
  O   O3        1.0  0.7562190220799221  0.9186560002659014  0.9382969626678808  1.0000
  O   O4        1.0  0.3372021022416192  0.09691235977915125  0.006353293894047152  1.0000
  O   O5        1.0  0.8815196993216894  0.08074781777309781  0.3410061365032817  1.0000
  O   O6        1.0  0.2144079988561174  0.714294390675299  0.39683161535952394  1.0000
  O   O7        1.0  0.8459303135385099  0.7931630371506841  0.8350071593260822  1.0000
  O   O8        1.0  0.22604925941603948  0.870893232656492  0.008694217990941056  1.0000
