data_image0
_chemical_formula_structural       Zr4O8
_chemical_formula_sum              "Zr4 O8"
_cell_length_a       5.1539878367877705
_cell_length_b       5.22810872
_cell_length_c       5.329696159145639
_cell_angle_alpha    90.0
_cell_angle_beta     99.43692258379697
_cell_angle_gamma    90.0

_space_group_name_H-M_alt    "P 1"
_space_group_IT_number       1

loop_
  _space_group_symop_operation_xyz
  'x, y, z'

loop_
  _atom_site_type_symbol
  _atom_site_label
  _atom_site_symmetry_multiplicity
  _atom_site_fract_x
  _atom_site_fract_y
  _atom_site_fract_z
  _atom_site_occupancy
  Zr  Zr1       1.0  0.16551631200447203  0.06218594847517345  0.9854520615034912  1.0000
  Zr  Zr2       1.0  0.4988410309893254  0.43093876501948536  0.5653445299581943  1.0000
  Zr  Zr3       1.0  0.16800814754722238  0.44619628635132  0.6542175151581979  1.0000
  Zr  Zr4       1.0  0.4342325778056626  0.4195296625501723  0.01939929917417338  1.0000
  O   O1        1.0  0.29309386178252694  0.09495388590360943  0.594540180535617  1.0000
  O   O2        1.0  0.36884103209666463  0.42394912911321825  0.013253753937702228  1.0000
  O   O3        1.0  0.7329368542322854  0.796412153940004  0.4063516620204979  1.0000
  O   O4        1.0  0.5431218006926848  0.4770308121923392  0.1422364672681553  1.0000
  O   O5        1.0  0.45414167923429716  0.443350856773133  0.5866687777988495  1.0000
  O   O6        1.0  0.2939804197378244  0.6321919617193288  0.0379559351373675  1.0000
  O   O7        1.0  0.3201756913154945  0.2459427536181431  0.6587588359102625  1.0000
  O   O8        1.0  0.9777820602883374  0.987905892939537  0.46954953191645643  1.0000
