data_image0
_chemical_formula_structural       Zr4O8
_chemical_formula_sum              "Zr4 O8"
_cell_length_a       5.1539878367877705
_cell_length_b       5.22810872
_cell_length_c       5.329696159145639
_cell_angle_alpha    90.0
_cell_angle_beta     99.43692258379697
_cell_angle_gamma    90.0

_space_group_name_H-M_alt    "P 1"
_space_group_IT_number       1

loop_
  _space_group_symop_operation_xyz
  'x, y, z'

loop_
  _atom_site_type_symbol
  _atom_site_label
  _atom_site_symmetry_multiplicity
  _atom_site_fract_x
  _atom_site_fract_y
  _atom_site_fract_z
  _atom_site_occupancy
  Zr  Zr1       1.0  0.5822612156795675  0.48271761258052237  0.020128244551971264  1.0000
  Zr  Zr2       1.0  0.7009536016434978  0.23100671864910183  0.4587539547294428  1.0000
  Zr  Zr3       1.0  0.16202904474721436  0.9756740287094021  0.13378783254643878  1.0000
  Zr  Zr4       1.0  0.33306587906987994  0.3203347032458801  0.3363188961387067  1.0000
  O   O1        1.0  0.36269783536080524  0.8968419859979804  0.35035765621694637  1.0000
  O   O2        1.0  0.788727919480849  0.219598889332147  0.03942807624052236  1.0000
  O   O3        1.0  0.1279369998834765  0.3163901436216605  0.9290228186400995  1.0000
  O   O4        1.0  0.5846865059870581  0.6839512830468206  0.9194619409770146  1.0000
  O   O5        1.0  0.960081110901438  0.24231127519698958  0.4386787144101163  1.0000
  O   O6        1.0  0.2973590063298204  0.12686237207162065  0.3362768259879303  1.0000
  O   O7        1.0  0.629205359319684  0.3449411547301473  0.7838025275584073  1.0000
  O   O8        1.0  0.5347702435054638  0.2496731631717477  0.15572542912232556  1.0000
