data_image0
_chemical_formula_structural       Zr4O8
_chemical_formula_sum              "Zr4 O8"
_cell_length_a       5.1539878367877705
_cell_length_b       5.22810872
_cell_length_c       5.329696159145639
_cell_angle_alpha    90.0
_cell_angle_beta     99.43692258379697
_cell_angle_gamma    90.0

_space_group_name_H-M_alt    "P 1"
_space_group_IT_number       1

loop_
  _space_group_symop_operation_xyz
  'x, y, z'

loop_
  _atom_site_type_symbol
  _atom_site_label
  _atom_site_symmetry_multiplicity
  _atom_site_fract_x
  _atom_site_fract_y
  _atom_site_fract_z
  _atom_site_occupancy
  Zr  Zr1       1.0  0.7646716126640005  0.32731543834059096  0.43871787408176743  1.0000
  Zr  Zr2       1.0  0.6381245608463146  0.6593119412177799  0.22146487331445996  1.0000
  Zr  Zr3       1.0  0.42487400541798337  0.41366206932153116  0.3721212706656303  1.0000
  Zr  Zr4       1.0  0.6557016513328535  0.46479771662239333  0.7942726948047607  1.0000
  O   O1        1.0  0.9583882039980693  0.7288536027115953  0.7152304808566381  1.0000
  O   O2        1.0  0.8137635734075694  0.7713613110794597  0.45006202287200203  1.0000
  O   O3        1.0  0.7911257078397806  0.610906132769486  0.2090212092126027  1.0000
  O   O4        1.0  0.6660756887870392  0.5842039349618902  0.32853566765869946  1.0000
  O   O5        1.0  0.8492455512281225  0.8179449810855388  0.9123048873650532  1.0000
  O   O6        1.0  0.8318447342711011  0.6504443059921741  0.655052289335412  1.0000
  O   O7        1.0  0.8221048841714698  0.3222361116516055  0.9733189575488126  1.0000
  O   O8        1.0  0.8457997429561752  0.585692675681103  0.5796790531989915  1.0000
