data_image0
_chemical_formula_structural       Zr4O8
_chemical_formula_sum              "Zr4 O8"
_cell_length_a       5.1539878367877705
_cell_length_b       5.22810872
_cell_length_c       5.329696159145639
_cell_angle_alpha    90.0
_cell_angle_beta     99.43692258379697
_cell_angle_gamma    90.0

_space_group_name_H-M_alt    "P 1"
_space_group_IT_number       1

loop_
  _space_group_symop_operation_xyz
  'x, y, z'

loop_
  _atom_site_type_symbol
  _atom_site_label
  _atom_site_symmetry_multiplicity
  _atom_site_fract_x
  _atom_site_fract_y
  _atom_site_fract_z
  _atom_site_occupancy
  Zr  Zr1       1.0  0.7589764449248815  0.3766925847222886  0.40328800163545253  1.0000
  Zr  Zr2       1.0  0.06657791854718909  0.08433468176335346  0.4751674150998819  1.0000
  Zr  Zr3       1.0  0.8514836691998653  0.46347068155636606  0.7414333378203253  1.0000
  Zr  Zr4       1.0  0.8412925601479522  0.4563526911478455  0.2048134517519955  1.0000
  O   O1        1.0  0.11332852278200534  0.09096800129916538  0.7521936030999363  1.0000
  O   O2        1.0  0.5010496668206663  0.10535754060890667  0.9757033617634292  1.0000
  O   O3        1.0  0.45954549404880396  0.278344332759211  0.3863677603374924  1.0000
  O   O4        1.0  0.928945012489188  0.20922450280725524  0.7676447393098123  1.0000
  O   O5        1.0  0.1758032590055052  0.9810639096311995  0.6122937072233601  1.0000
  O   O6        1.0  0.19433441541331575  0.6693919561701094  0.013403800030262758  1.0000
  O   O7        1.0  0.2561943667341495  0.21856349907644912  0.9521899704415269  1.0000
  O   O8        1.0  0.7102659362250527  0.3988686328528104  0.7499270362660866  1.0000
