data_image0
_chemical_formula_structural       Zr4O8
_chemical_formula_sum              "Zr4 O8"
_cell_length_a       5.1539878367877705
_cell_length_b       5.22810872
_cell_length_c       5.329696159145639
_cell_angle_alpha    90.0
_cell_angle_beta     99.43692258379697
_cell_angle_gamma    90.0

_space_group_name_H-M_alt    "P 1"
_space_group_IT_number       1

loop_
  _space_group_symop_operation_xyz
  'x, y, z'

loop_
  _atom_site_type_symbol
  _atom_site_label
  _atom_site_symmetry_multiplicity
  _atom_site_fract_x
  _atom_site_fract_y
  _atom_site_fract_z
  _atom_site_occupancy
  Zr  Zr1       1.0  0.1143408265619783  0.5215702425104816  0.502954383745446  1.0000
  Zr  Zr2       1.0  0.1300349052855836  0.0019165516713215425  0.3810403086316416  1.0000
  Zr  Zr3       1.0  0.8386039622715398  0.7828235369970344  0.8668129585626474  1.0000
  Zr  Zr4       1.0  0.30231910414000684  0.823159333068082  0.5827724277220594  1.0000
  O   O1        1.0  0.2647499451122215  0.7359114181742967  0.06670794179063577  1.0000
  O   O2        1.0  0.24068487325411247  0.6451251547570633  0.7662919517892233  1.0000
  O   O3        1.0  0.7666282092378243  0.6187135129862344  0.40916486854760237  1.0000
  O   O4        1.0  0.8371397549505701  0.08243193710298735  0.9181500248454864  1.0000
  O   O5        1.0  0.0277158864338527  0.8158943294307033  0.22472450565306445  1.0000
  O   O6        1.0  0.942154848463002  0.3424046920918178  0.14263009940418403  1.0000
  O   O7        1.0  0.5257533784091422  0.8133241569431447  0.8414318613461269  1.0000
  O   O8        1.0  0.11316456844311418  0.5640482860589202  0.4207260674080828  1.0000
