data_image0
_chemical_formula_structural       Zr4O8
_chemical_formula_sum              "Zr4 O8"
_cell_length_a       5.1539878367877705
_cell_length_b       5.22810872
_cell_length_c       5.329696159145639
_cell_angle_alpha    90.0
_cell_angle_beta     99.43692258379697
_cell_angle_gamma    90.0

_space_group_name_H-M_alt    "P 1"
_space_group_IT_number       1

loop_
  _space_group_symop_operation_xyz
  'x, y, z'

loop_
  _atom_site_type_symbol
  _atom_site_label
  _atom_site_symmetry_multiplicity
  _atom_site_fract_x
  _atom_site_fract_y
  _atom_site_fract_z
  _atom_site_occupancy
  Zr  Zr1       1.0  0.2863876724930021  0.220158359637745  0.20833476195600475  1.0000
  Zr  Zr2       1.0  0.9580570263815051  0.5634281588159435  0.6340815716566675  1.0000
  Zr  Zr3       1.0  0.42463209027794413  0.6419022417855236  0.4146767736851267  1.0000
  Zr  Zr4       1.0  0.7400646070825414  0.2749001685932182  0.7680186223244796  1.0000
  O   O1        1.0  0.5564182439978964  0.5406486527518304  0.9909648629861678  1.0000
  O   O2        1.0  0.345893803594846  0.6263667331294016  0.6502132715542599  1.0000
  O   O3        1.0  0.1742233896891121  0.33553895906765874  0.7502566530471917  1.0000
  O   O4        1.0  0.5732354882898534  0.712648200343879  0.408433166480092  1.0000
  O   O5        1.0  0.6536806107529287  0.4163831713552071  0.07222705353056824  1.0000
  O   O6        1.0  0.8426579431052232  0.7289566359431419  0.9779524980360534  1.0000
  O   O7        1.0  0.7481916545205785  0.8086248269495542  0.2008069926614695  1.0000
  O   O8        1.0  0.09731499961813395  0.9066806740908238  0.8901685577655805  1.0000
