data_image0
_chemical_formula_structural       Zr4O8
_chemical_formula_sum              "Zr4 O8"
_cell_length_a       5.1539878367877705
_cell_length_b       5.22810872
_cell_length_c       5.329696159145639
_cell_angle_alpha    90.0
_cell_angle_beta     99.43692258379697
_cell_angle_gamma    90.0

_space_group_name_H-M_alt    "P 1"
_space_group_IT_number       1

loop_
  _space_group_symop_operation_xyz
  'x, y, z'

loop_
  _atom_site_type_symbol
  _atom_site_label
  _atom_site_symmetry_multiplicity
  _atom_site_fract_x
  _atom_site_fract_y
  _atom_site_fract_z
  _atom_site_occupancy
  Zr  Zr1       1.0  0.25015116267420545  0.24916504600930978  0.2199704738480195  1.0000
  Zr  Zr2       1.0  0.5978650711996849  0.3140410694268958  0.06779920227009928  1.0000
  Zr  Zr3       1.0  0.7096172217511656  0.22980213783632641  0.49324986188617936  1.0000
  Zr  Zr4       1.0  0.9128112284991983  0.16139175294927544  0.07218009900447608  1.0000
  O   O1        1.0  0.20465198951800545  0.8217297848592473  0.31382653518918424  1.0000
  O   O2        1.0  0.9968395080433385  0.4709138079902859  0.9238815815163584  1.0000
  O   O3        1.0  0.6297861583005151  0.19911173127643678  0.7969005261209965  1.0000
  O   O4        1.0  0.09071999026135114  0.2832353812508259  0.2494994347570696  1.0000
  O   O5        1.0  0.9280379017278371  0.560166163318927  0.8672379276383246  1.0000
  O   O6        1.0  0.8755845205117794  0.14114230525805116  0.7296468564693281  1.0000
  O   O7        1.0  0.6936895278667481  0.9012904279082115  0.8013858623677663  1.0000
  O   O8        1.0  0.20719078292975368  0.0034583992407561936  0.026760673469005365  1.0000
