data_image0
_chemical_formula_structural       Zr4O8
_chemical_formula_sum              "Zr4 O8"
_cell_length_a       5.1539878367877705
_cell_length_b       5.22810872
_cell_length_c       5.329696159145639
_cell_angle_alpha    90.0
_cell_angle_beta     99.43692258379697
_cell_angle_gamma    90.0

_space_group_name_H-M_alt    "P 1"
_space_group_IT_number       1

loop_
  _space_group_symop_operation_xyz
  'x, y, z'

loop_
  _atom_site_type_symbol
  _atom_site_label
  _atom_site_symmetry_multiplicity
  _atom_site_fract_x
  _atom_site_fract_y
  _atom_site_fract_z
  _atom_site_occupancy
  Zr  Zr1       1.0  0.18353956878169164  0.7461422849424189  0.7258310668984338  1.0000
  Zr  Zr2       1.0  0.2767873285546454  0.968723520330153  0.7943529360603252  1.0000
  Zr  Zr3       1.0  0.21945672888998313  0.9733984871992796  0.022117040799418675  1.0000
  Zr  Zr4       1.0  0.44878681550107125  0.11954447007280766  0.5088708700468967  1.0000
  O   O1        1.0  0.9031639135947138  0.9650882848919466  0.23598333209728395  1.0000
  O   O2        1.0  0.865697208168811  0.1774737852715802  0.5953048395693052  1.0000
  O   O3        1.0  0.6940248573810521  0.6738886273042795  0.7275358109652563  1.0000
  O   O4        1.0  0.026429748830818056  0.7747933354667538  0.42337780631356736  1.0000
  O   O5        1.0  0.7641206741843831  0.5204682180099596  0.16298758578881234  1.0000
  O   O6        1.0  0.791363633334349  0.5149726401555625  0.13538432687795776  1.0000
  O   O7        1.0  0.8018771949633638  0.45789205909988695  0.427862282205588  1.0000
  O   O8        1.0  0.8706783208492094  0.38525899706567657  0.7961963893513939  1.0000
