data_image0
_chemical_formula_structural       Zr4O8
_chemical_formula_sum              "Zr4 O8"
_cell_length_a       5.1539878367877705
_cell_length_b       5.22810872
_cell_length_c       5.329696159145639
_cell_angle_alpha    90.0
_cell_angle_beta     99.43692258379697
_cell_angle_gamma    90.0

_space_group_name_H-M_alt    "P 1"
_space_group_IT_number       1

loop_
  _space_group_symop_operation_xyz
  'x, y, z'

loop_
  _atom_site_type_symbol
  _atom_site_label
  _atom_site_symmetry_multiplicity
  _atom_site_fract_x
  _atom_site_fract_y
  _atom_site_fract_z
  _atom_site_occupancy
  Zr  Zr1       1.0  0.8169046986675426  0.7345403631728615  0.6439476935213442  1.0000
  Zr  Zr2       1.0  0.5653523867192707  0.714013034584104  0.4506115740577572  1.0000
  Zr  Zr3       1.0  0.1020704894805129  0.7228009934161275  0.1501279922278158  1.0000
  Zr  Zr4       1.0  0.08840348165643075  0.05151681601329727  0.038610681341838315  1.0000
  O   O1        1.0  0.3464790933921016  0.26082955929280516  0.4410651988735097  1.0000
  O   O2        1.0  0.39756176578746505  0.35497994440868297  0.27822076730567247  1.0000
  O   O3        1.0  0.5211980578879469  0.55943034596649  0.3879076479032513  1.0000
  O   O4        1.0  0.09588038433783641  0.7731374073137456  0.5736977734003634  1.0000
  O   O5        1.0  0.7248502620192614  0.07323945482676208  0.7575873538543831  1.0000
  O   O6        1.0  0.14386264378057234  0.8554478564507662  0.41437028107772367  1.0000
  O   O7        1.0  0.7114914411769213  0.3157951151864644  0.934331671777592  1.0000
  O   O8        1.0  0.5347629600906778  0.9087645068652783  0.04992897822283027  1.0000
