data_image0
_chemical_formula_structural       Zr4O8
_chemical_formula_sum              "Zr4 O8"
_cell_length_a       5.1539878367877705
_cell_length_b       5.22810872
_cell_length_c       5.329696159145639
_cell_angle_alpha    90.0
_cell_angle_beta     99.43692258379697
_cell_angle_gamma    90.0

_space_group_name_H-M_alt    "P 1"
_space_group_IT_number       1

loop_
  _space_group_symop_operation_xyz
  'x, y, z'

loop_
  _atom_site_type_symbol
  _atom_site_label
  _atom_site_symmetry_multiplicity
  _atom_site_fract_x
  _atom_site_fract_y
  _atom_site_fract_z
  _atom_site_occupancy
  Zr  Zr1       1.0  0.7004093133963423  0.960581880132283  0.9995175601985231  1.0000
  Zr  Zr2       1.0  0.7723689643496092  0.3489549942198513  0.2733136809053107  1.0000
  Zr  Zr3       1.0  0.23179713345773312  0.02099819281171378  0.8323632284218512  1.0000
  Zr  Zr4       1.0  0.15302433386677494  0.6850627098380384  0.30994864091157837  1.0000
  O   O1        1.0  0.7621824869089231  0.7191246734487535  0.10187157185874085  1.0000
  O   O2        1.0  0.8083850634483554  0.8395465911960542  0.8110673585002459  1.0000
  O   O3        1.0  0.47182854175500566  0.9072918262764844  0.5869694984657343  1.0000
  O   O4        1.0  0.2642134241432146  0.8193905315568699  0.16923621272417932  1.0000
  O   O5        1.0  0.47257059959306247  0.19502231656117885  0.1260312856739283  1.0000
  O   O6        1.0  0.28186822681702495  0.06091738645991995  0.26189879683576045  1.0000
  O   O7        1.0  0.06298055129848557  0.5348061637697928  0.8249042614676974  1.0000
  O   O8        1.0  0.2255561554569656  0.8788567586349774  0.39448393176576957  1.0000
