data_image0
_chemical_formula_structural       Zr4O8
_chemical_formula_sum              "Zr4 O8"
_cell_length_a       5.1539878367877705
_cell_length_b       5.22810872
_cell_length_c       5.329696159145639
_cell_angle_alpha    90.0
_cell_angle_beta     99.43692258379697
_cell_angle_gamma    90.0

_space_group_name_H-M_alt    "P 1"
_space_group_IT_number       1

loop_
  _space_group_symop_operation_xyz
  'x, y, z'

loop_
  _atom_site_type_symbol
  _atom_site_label
  _atom_site_symmetry_multiplicity
  _atom_site_fract_x
  _atom_site_fract_y
  _atom_site_fract_z
  _atom_site_occupancy
  Zr  Zr1       1.0  0.3410299847917546  0.5839268198707881  0.9417484980721844  1.0000
  Zr  Zr2       1.0  0.8337970739176548  0.11504044179629958  0.4835485376358193  1.0000
  Zr  Zr3       1.0  0.8091446306221934  0.512390021935901  0.060949028816273065  1.0000
  Zr  Zr4       1.0  0.687372705766359  0.39821880797974707  0.07600342398650195  1.0000
  O   O1        1.0  0.3461522443450349  0.6790501052076081  0.6160025345325622  1.0000
  O   O2        1.0  0.3773784619053462  0.47231171798589866  0.5472884020644067  1.0000
  O   O3        1.0  0.0787286281502384  0.1496952501867348  0.8507275118686  1.0000
  O   O4        1.0  0.1454446123243116  0.05755198112827786  0.1785829940737731  1.0000
  O   O5        1.0  0.6900482912998038  0.8370401477896543  0.4706882005523383  1.0000
  O   O6        1.0  0.7599077748378775  0.00021429603802403108  0.6578443442758095  1.0000
  O   O7        1.0  0.08628074788726448  0.8568513810704896  0.14429007037508512  1.0000
  O   O8        1.0  0.8950093427808028  0.3992427602915569  0.21874102897330694  1.0000
