data_image0
_chemical_formula_structural       Zr4O8
_chemical_formula_sum              "Zr4 O8"
_cell_length_a       5.1539878367877705
_cell_length_b       5.22810872
_cell_length_c       5.329696159145639
_cell_angle_alpha    90.0
_cell_angle_beta     99.43692258379697
_cell_angle_gamma    90.0

_space_group_name_H-M_alt    "P 1"
_space_group_IT_number       1

loop_
  _space_group_symop_operation_xyz
  'x, y, z'

loop_
  _atom_site_type_symbol
  _atom_site_label
  _atom_site_symmetry_multiplicity
  _atom_site_fract_x
  _atom_site_fract_y
  _atom_site_fract_z
  _atom_site_occupancy
  Zr  Zr1       1.0  0.22417514171825736  0.8777794042017852  0.4832495535681893  1.0000
  Zr  Zr2       1.0  0.9802520254481148  0.5974205409615756  0.3051970552614751  1.0000
  Zr  Zr3       1.0  0.08265183396065012  0.654699838196044  0.13232305211980133  1.0000
  Zr  Zr4       1.0  0.9343274221833409  0.9285293164506196  0.44764008367153263  1.0000
  O   O1        1.0  0.12751990557166692  0.9553874083400107  0.46784458309767274  1.0000
  O   O2        1.0  0.43155049789436184  0.716707212638962  0.46117481168534  1.0000
  O   O3        1.0  0.82761173675944  0.1596170765120064  0.38134359336542545  1.0000
  O   O4        1.0  0.2775888493884935  0.9078006216901704  0.8544498194490342  1.0000
  O   O5        1.0  0.7920422152690287  0.29671651537810817  0.13898461961827024  1.0000
  O   O6        1.0  0.41647414313811737  0.5541794898207897  0.4305924024167922  1.0000
  O   O7        1.0  0.7365384711339225  0.9492173814474896  0.6209374910418006  1.0000
  O   O8        1.0  0.7838432373334498  0.5461012155383393  0.5068615696267678  1.0000
