data_image0
_chemical_formula_structural       Zr4O8
_chemical_formula_sum              "Zr4 O8"
_cell_length_a       5.1539878367877705
_cell_length_b       5.22810872
_cell_length_c       5.329696159145639
_cell_angle_alpha    90.0
_cell_angle_beta     99.43692258379697
_cell_angle_gamma    90.0

_space_group_name_H-M_alt    "P 1"
_space_group_IT_number       1

loop_
  _space_group_symop_operation_xyz
  'x, y, z'

loop_
  _atom_site_type_symbol
  _atom_site_label
  _atom_site_symmetry_multiplicity
  _atom_site_fract_x
  _atom_site_fract_y
  _atom_site_fract_z
  _atom_site_occupancy
  Zr  Zr1       1.0  0.7246355125633208  0.410274743901585  0.00033614459502473437  1.0000
  Zr  Zr2       1.0  0.332840663608291  0.013135811589695123  0.2924641720972101  1.0000
  Zr  Zr3       1.0  0.7598351313191154  0.47197458510701296  0.017693505995800107  1.0000
  Zr  Zr4       1.0  0.02173177078047006  0.6500251910409389  0.5487152458903353  1.0000
  O   O1        1.0  0.4382854315501259  0.577295627560801  0.1551937212432577  1.0000
  O   O2        1.0  0.9446144601433275  0.46396899964732086  0.9392817975037886  1.0000
  O   O3        1.0  0.5512012586701509  0.9330835047005515  0.45410536914625865  1.0000
  O   O4        1.0  0.15119115614896472  0.48242571429324244  0.28011813503244554  1.0000
  O   O5        1.0  0.15444595546114925  0.14832228531658131  0.36745650951613484  1.0000
  O   O6        1.0  0.8696942630975286  0.7393969066978912  0.7218119019817815  1.0000
  O   O7        1.0  0.016678694486557788  0.3486348846701919  0.3762429718298783  1.0000
  O   O8        1.0  0.3094369131857917  0.014021552009450655  0.051840673683189564  1.0000
