data_image0
_chemical_formula_structural       Zr4O8
_chemical_formula_sum              "Zr4 O8"
_cell_length_a       5.1539878367877705
_cell_length_b       5.22810872
_cell_length_c       5.329696159145639
_cell_angle_alpha    90.0
_cell_angle_beta     99.43692258379697
_cell_angle_gamma    90.0

_space_group_name_H-M_alt    "P 1"
_space_group_IT_number       1

loop_
  _space_group_symop_operation_xyz
  'x, y, z'

loop_
  _atom_site_type_symbol
  _atom_site_label
  _atom_site_symmetry_multiplicity
  _atom_site_fract_x
  _atom_site_fract_y
  _atom_site_fract_z
  _atom_site_occupancy
  Zr  Zr1       1.0  0.481552684140766  0.585769420196737  0.781341921611233  1.0000
  Zr  Zr2       1.0  0.18795706415619762  0.6846325806580298  0.2802715333116179  1.0000
  Zr  Zr3       1.0  0.4169030863487433  0.0649804516999275  0.4684326052092569  1.0000
  Zr  Zr4       1.0  0.44908847073752645  0.939926894190311  0.4521604912916679  1.0000
  O   O1        1.0  0.4596889267825759  0.07474797676438527  0.9012449796557558  1.0000
  O   O2        1.0  0.36932808110044846  0.5113792681016847  0.2884488568428445  1.0000
  O   O3        1.0  0.08593312876992343  0.013763550910105948  0.9137359635368156  1.0000
  O   O4        1.0  0.9777374089470137  0.9446412254544594  0.10823717581383896  1.0000
  O   O5        1.0  0.7172331264956711  0.20085214133838747  0.3728708314253595  1.0000
  O   O6        1.0  0.5460338879196627  0.7392605885033774  0.5452861780572134  1.0000
  O   O7        1.0  0.6688150119749601  0.2946424716735745  0.13561329348974382  1.0000
  O   O8        1.0  0.7944100403673957  0.022077924247149383  0.6333284317971888  1.0000
