data_image0
_chemical_formula_structural       Zr4O8
_chemical_formula_sum              "Zr4 O8"
_cell_length_a       5.1539878367877705
_cell_length_b       5.22810872
_cell_length_c       5.329696159145639
_cell_angle_alpha    90.0
_cell_angle_beta     99.43692258379697
_cell_angle_gamma    90.0

_space_group_name_H-M_alt    "P 1"
_space_group_IT_number       1

loop_
  _space_group_symop_operation_xyz
  'x, y, z'

loop_
  _atom_site_type_symbol
  _atom_site_label
  _atom_site_symmetry_multiplicity
  _atom_site_fract_x
  _atom_site_fract_y
  _atom_site_fract_z
  _atom_site_occupancy
  Zr  Zr1       1.0  0.3436057407717925  0.818871138194524  0.4553144548572714  1.0000
  Zr  Zr2       1.0  0.2403304642995181  0.2227574466778155  0.7711776498331693  1.0000
  Zr  Zr3       1.0  0.3355678843303309  0.892394496212841  0.5777696894356454  1.0000
  Zr  Zr4       1.0  0.6121631625679003  0.05268684274722801  0.3968600496849284  1.0000
  O   O1        1.0  0.7200237012585515  0.2935655521900742  0.6250154942259556  1.0000
  O   O2        1.0  0.5828113579106144  0.05042651334299819  0.165912203827709  1.0000
  O   O3        1.0  0.5353007519586797  0.2911050844231582  0.5366925911824652  1.0000
  O   O4        1.0  0.3217569464753076  0.9879321328090072  0.24323886733521505  1.0000
  O   O5        1.0  0.30919254349027625  0.3524884390692975  0.6615295670940711  1.0000
  O   O6        1.0  0.6364492352078628  0.9845194804721622  0.4208624575682869  1.0000
  O   O7        1.0  0.3759316145207592  0.70070824431901  0.8720057434537551  1.0000
  O   O8        1.0  0.13472188385169304  0.1712146769462981  0.6186410201714239  1.0000
