data_image0
_chemical_formula_structural       Zr4O8
_chemical_formula_sum              "Zr4 O8"
_cell_length_a       5.1539878367877705
_cell_length_b       5.22810872
_cell_length_c       5.329696159145639
_cell_angle_alpha    90.0
_cell_angle_beta     99.43692258379697
_cell_angle_gamma    90.0

_space_group_name_H-M_alt    "P 1"
_space_group_IT_number       1

loop_
  _space_group_symop_operation_xyz
  'x, y, z'

loop_
  _atom_site_type_symbol
  _atom_site_label
  _atom_site_symmetry_multiplicity
  _atom_site_fract_x
  _atom_site_fract_y
  _atom_site_fract_z
  _atom_site_occupancy
  Zr  Zr1       1.0  0.2854825409371031  0.7993371322120559  0.23255033925410748  1.0000
  Zr  Zr2       1.0  0.5939954795568312  0.4353642086105687  0.5724577776565383  1.0000
  Zr  Zr3       1.0  0.6695987300899855  0.36698591770978384  0.6617861242602414  1.0000
  Zr  Zr4       1.0  0.2923247959158354  0.03346595629600957  0.4960322935494341  1.0000
  O   O1        1.0  0.851213722863621  0.400500026803698  0.9488066720956505  1.0000
  O   O2        1.0  0.5720477133356017  0.8866757048875202  0.006318407711568774  1.0000
  O   O3        1.0  0.05746606978035196  0.8955385817699297  0.583689670635458  1.0000
  O   O4        1.0  0.6536217600425092  0.26780640220927054  0.8867725537176447  1.0000
  O   O5        1.0  0.8567288122828298  0.34632163335027144  0.8178382618296354  1.0000
  O   O6        1.0  0.5805709354163469  0.5191116341306206  0.2602996183588413  1.0000
  O   O7        1.0  0.6467226959521106  0.48471028515628234  0.253427547093807  1.0000
  O   O8        1.0  0.29835289379667707  0.7079761077882054  0.06490519480473811  1.0000
