data_image0
_chemical_formula_structural       Zr4O8
_chemical_formula_sum              "Zr4 O8"
_cell_length_a       5.1539878367877705
_cell_length_b       5.22810872
_cell_length_c       5.329696159145639
_cell_angle_alpha    90.0
_cell_angle_beta     99.43692258379697
_cell_angle_gamma    90.0

_space_group_name_H-M_alt    "P 1"
_space_group_IT_number       1

loop_
  _space_group_symop_operation_xyz
  'x, y, z'

loop_
  _atom_site_type_symbol
  _atom_site_label
  _atom_site_symmetry_multiplicity
  _atom_site_fract_x
  _atom_site_fract_y
  _atom_site_fract_z
  _atom_site_occupancy
  Zr  Zr1       1.0  0.3286149708041153  0.22267639591272692  0.5924972187986324  1.0000
  Zr  Zr2       1.0  0.7404647512695695  0.5994667754321688  0.7320449172896955  1.0000
  Zr  Zr3       1.0  0.06802125557625438  0.14702907889462935  0.5409870561788228  1.0000
  Zr  Zr4       1.0  0.09873861184893595  0.06719137971747235  0.09905107422849113  1.0000
  O   O1        1.0  0.6584837767695557  0.9149616330583434  0.037259315477815136  1.0000
  O   O2        1.0  0.9804166668815233  0.8009702821379268  0.41048897857612987  1.0000
  O   O3        1.0  0.24729084891077235  0.9784317258471447  0.14758995867503688  1.0000
  O   O4        1.0  0.9565787452419521  0.2525649023583174  0.04568086344033162  1.0000
  O   O5        1.0  0.557669741001753  0.12850438690923482  0.6269003419810972  1.0000
  O   O6        1.0  0.5440326164530154  0.4921519671508521  0.8289452206201835  1.0000
  O   O7        1.0  0.958726857559892  0.7613897962085705  0.31411283522897904  1.0000
  O   O8        1.0  0.8935885253806233  0.4605157730678058  0.06055893193148654  1.0000
