data_image0
_chemical_formula_structural       Zr4O8
_chemical_formula_sum              "Zr4 O8"
_cell_length_a       5.1539878367877705
_cell_length_b       5.22810872
_cell_length_c       5.329696159145639
_cell_angle_alpha    90.0
_cell_angle_beta     99.43692258379697
_cell_angle_gamma    90.0

_space_group_name_H-M_alt    "P 1"
_space_group_IT_number       1

loop_
  _space_group_symop_operation_xyz
  'x, y, z'

loop_
  _atom_site_type_symbol
  _atom_site_label
  _atom_site_symmetry_multiplicity
  _atom_site_fract_x
  _atom_site_fract_y
  _atom_site_fract_z
  _atom_site_occupancy
  Zr  Zr1       1.0  0.252079155618663  0.7343999041831673  0.22552571837352176  1.0000
  Zr  Zr2       1.0  0.43060411062462123  0.4571857019168175  0.5004082307207973  1.0000
  Zr  Zr3       1.0  0.9674713897524296  0.15470167065299023  0.7009920524811719  1.0000
  Zr  Zr4       1.0  0.35498356466641856  0.162138740741824  0.0880468975290647  1.0000
  O   O1        1.0  0.4892599439168599  0.6285865831925506  0.14304586987845802  1.0000
  O   O2        1.0  0.24858176584081093  0.2626657004640407  0.39844238092639017  1.0000
  O   O3        1.0  0.26462689636502645  0.2661274667639688  0.25267400884364477  1.0000
  O   O4        1.0  0.7318845654534485  0.2450449168343809  0.020774503565860414  1.0000
  O   O5        1.0  0.4007905022808309  0.7807454783775469  0.6248814358571657  1.0000
  O   O6        1.0  0.22919161132814736  0.495654082524581  0.8910250327644862  1.0000
  O   O7        1.0  0.5361350304239121  0.36682329468047215  0.8318084638408365  1.0000
  O   O8        1.0  0.5752149006298231  0.0893154061996877  0.14564251079304213  1.0000
