data_image0
_chemical_formula_structural       Zr4O8
_chemical_formula_sum              "Zr4 O8"
_cell_length_a       5.1539878367877705
_cell_length_b       5.22810872
_cell_length_c       5.329696159145639
_cell_angle_alpha    90.0
_cell_angle_beta     99.43692258379697
_cell_angle_gamma    90.0

_space_group_name_H-M_alt    "P 1"
_space_group_IT_number       1

loop_
  _space_group_symop_operation_xyz
  'x, y, z'

loop_
  _atom_site_type_symbol
  _atom_site_label
  _atom_site_symmetry_multiplicity
  _atom_site_fract_x
  _atom_site_fract_y
  _atom_site_fract_z
  _atom_site_occupancy
  Zr  Zr1       1.0  0.01192764475328012  0.9520882509134427  0.5081929336996871  1.0000
  Zr  Zr2       1.0  0.617214632591612  0.35188466343372937  0.32448348956451745  1.0000
  Zr  Zr3       1.0  0.6084870855281808  0.2135611710812899  0.8300904958102873  1.0000
  Zr  Zr4       1.0  0.575625665475548  0.7699576733754192  0.8769134317114062  1.0000
  O   O1        1.0  0.8740129010604285  0.10342935674868858  0.12851916567833044  1.0000
  O   O2        1.0  0.009975600248004257  0.4569945984502013  0.4955106956974702  1.0000
  O   O3        1.0  0.5769993810749838  0.4128799458736907  0.32931727880620887  1.0000
  O   O4        1.0  0.6890786548389229  0.65725514992927  0.44726516206428  1.0000
  O   O5        1.0  0.3666894156676648  0.5638023824424394  0.1593397339051652  1.0000
  O   O6        1.0  0.04000217910752735  0.39339047554905804  0.7456981088468702  1.0000
  O   O7        1.0  0.5262754501683169  0.28209289231661394  0.1666966524237239  1.0000
  O   O8        1.0  0.7403069844355864  0.04857007708809746  0.8372562163855619  1.0000
