data_image0
_chemical_formula_structural       Zr4O8
_chemical_formula_sum              "Zr4 O8"
_cell_length_a       5.1539878367877705
_cell_length_b       5.22810872
_cell_length_c       5.329696159145639
_cell_angle_alpha    90.0
_cell_angle_beta     99.43692258379697
_cell_angle_gamma    90.0

_space_group_name_H-M_alt    "P 1"
_space_group_IT_number       1

loop_
  _space_group_symop_operation_xyz
  'x, y, z'

loop_
  _atom_site_type_symbol
  _atom_site_label
  _atom_site_symmetry_multiplicity
  _atom_site_fract_x
  _atom_site_fract_y
  _atom_site_fract_z
  _atom_site_occupancy
  Zr  Zr1       1.0  0.9529062865612139  0.03095816324148437  0.4517606210470628  1.0000
  Zr  Zr2       1.0  0.4101804838004739  0.4848683690570308  0.294969102385374  1.0000
  Zr  Zr3       1.0  0.21070900830314088  0.9557415824946354  0.7609175578739631  1.0000
  Zr  Zr4       1.0  0.47283621718295965  0.8153815612888247  0.9835279984459078  1.0000
  O   O1        1.0  0.2646916389011551  0.9894306846324206  0.35575070416389565  1.0000
  O   O2        1.0  0.33899084419938397  0.8115989559114354  0.10546971338776068  1.0000
  O   O3        1.0  0.30730347501123845  0.037374386086895584  0.3721295351177858  1.0000
  O   O4        1.0  0.16518398369004217  0.37456445346009337  0.41359454192807554  1.0000
  O   O5        1.0  0.8430159437323539  0.8737455220165415  0.8174503105706208  1.0000
  O   O6        1.0  0.46448930706237945  0.37649475441805436  0.3189813661266534  1.0000
  O   O7        1.0  0.2709073304693703  0.7298142552374003  0.37243223350265  1.0000
  O   O8        1.0  0.19242984131114071  0.09573506621699135  0.5344841853428592  1.0000
