data_image0
_chemical_formula_structural       Zr4O8
_chemical_formula_sum              "Zr4 O8"
_cell_length_a       5.1539878367877705
_cell_length_b       5.22810872
_cell_length_c       5.329696159145639
_cell_angle_alpha    90.0
_cell_angle_beta     99.43692258379697
_cell_angle_gamma    90.0

_space_group_name_H-M_alt    "P 1"
_space_group_IT_number       1

loop_
  _space_group_symop_operation_xyz
  'x, y, z'

loop_
  _atom_site_type_symbol
  _atom_site_label
  _atom_site_symmetry_multiplicity
  _atom_site_fract_x
  _atom_site_fract_y
  _atom_site_fract_z
  _atom_site_occupancy
  Zr  Zr1       1.0  0.7373123406232382  0.6564298550333324  0.302555592349143  1.0000
  Zr  Zr2       1.0  0.2667910702994387  0.44586109402200336  0.477940915466216  1.0000
  Zr  Zr3       1.0  0.8803288106936351  0.30306983956557154  0.31444215798542885  1.0000
  Zr  Zr4       1.0  0.5033799170124498  0.43177001224326617  0.057974872827773805  1.0000
  O   O1        1.0  0.3600818006174942  0.5224804546604389  0.43737506530547066  1.0000
  O   O2        1.0  0.308730506581099  0.7427503918910929  0.26749337463290423  1.0000
  O   O3        1.0  0.6859121043698764  0.9056044949418123  0.8593462616329912  1.0000
  O   O4        1.0  0.8676217191571034  0.2707880432211702  0.3235798064267321  1.0000
  O   O5        1.0  0.3948814122736479  0.5373333601227515  0.515230036978676  1.0000
  O   O6        1.0  0.14322669662256216  0.7232751511497  0.5542081620568304  1.0000
  O   O7        1.0  0.8275009762360677  0.25917571113090787  0.6395361544184048  1.0000
  O   O8        1.0  0.9545923922960332  0.47224166415702484  0.6036649570604711  1.0000
