data_image0
_chemical_formula_structural       Zr4O8
_chemical_formula_sum              "Zr4 O8"
_cell_length_a       5.1539878367877705
_cell_length_b       5.22810872
_cell_length_c       5.329696159145639
_cell_angle_alpha    90.0
_cell_angle_beta     99.43692258379697
_cell_angle_gamma    90.0

_space_group_name_H-M_alt    "P 1"
_space_group_IT_number       1

loop_
  _space_group_symop_operation_xyz
  'x, y, z'

loop_
  _atom_site_type_symbol
  _atom_site_label
  _atom_site_symmetry_multiplicity
  _atom_site_fract_x
  _atom_site_fract_y
  _atom_site_fract_z
  _atom_site_occupancy
  Zr  Zr1       1.0  0.6257170523482865  0.77923181720994  0.30243250102763497  1.0000
  Zr  Zr2       1.0  0.4823872478571225  0.11439678808008047  0.7615395377929937  1.0000
  Zr  Zr3       1.0  0.8485246301376508  0.3849387201609282  0.7233422922720667  1.0000
  Zr  Zr4       1.0  0.01222014486210199  0.576740776994562  0.34246543047591516  1.0000
  O   O1        1.0  0.44717226651305  0.6621547593243235  0.9356883441908508  1.0000
  O   O2        1.0  0.6017420947134227  0.6368297083619581  0.3060508367546575  1.0000
  O   O3        1.0  0.9164727182197971  0.3998830567900029  0.8951920417952053  1.0000
  O   O4        1.0  0.41558756029328947  0.04466156772025343  0.9345705492828174  1.0000
  O   O5        1.0  0.2451813766069293  0.9454781107466737  0.526178348938164  1.0000
  O   O6        1.0  0.02950195275668932  0.7634353722992415  0.8420389014843437  1.0000
  O   O7        1.0  0.3129972787025821  0.04889376622080199  0.6432315797975932  1.0000
  O   O8        1.0  0.35602528687772406  0.7838560758067246  0.23115508641595994  1.0000
