data_image0
_chemical_formula_structural       Zr4O8
_chemical_formula_sum              "Zr4 O8"
_cell_length_a       5.1539878367877705
_cell_length_b       5.22810872
_cell_length_c       5.329696159145639
_cell_angle_alpha    90.0
_cell_angle_beta     99.43692258379697
_cell_angle_gamma    90.0

_space_group_name_H-M_alt    "P 1"
_space_group_IT_number       1

loop_
  _space_group_symop_operation_xyz
  'x, y, z'

loop_
  _atom_site_type_symbol
  _atom_site_label
  _atom_site_symmetry_multiplicity
  _atom_site_fract_x
  _atom_site_fract_y
  _atom_site_fract_z
  _atom_site_occupancy
  Zr  Zr1       1.0  0.13481988798960032  0.060190017022568654  0.5421977575900208  1.0000
  Zr  Zr2       1.0  0.42939474409821443  0.48916941016810966  0.9503388530278851  1.0000
  Zr  Zr3       1.0  0.002578547972616363  0.9551671702796283  0.5887868336726712  1.0000
  Zr  Zr4       1.0  0.7277863643415196  0.08116270035686135  0.6178953303064958  1.0000
  O   O1        1.0  0.3064006296731989  0.5040426798426871  0.9910182871415429  1.0000
  O   O2        1.0  0.061696382995324095  0.22003152838348683  0.1956458621246826  1.0000
  O   O3        1.0  0.6966664441460553  0.018618603223590213  0.9158357451736645  1.0000
  O   O4        1.0  0.9755985581486257  0.40782835042695  0.9854372740816331  1.0000
  O   O5        1.0  0.28567331417422537  0.7520758288285574  0.6898184713481044  1.0000
  O   O6        1.0  0.4989587211880391  0.549439211049183  0.16420186329343167  1.0000
  O   O7        1.0  0.6802659508003863  0.2499101264392003  0.9119495987856965  1.0000
  O   O8        1.0  0.13826231268506195  0.06027210324767651  0.6223848884743628  1.0000
