data_image0
_chemical_formula_structural       Zr4O8
_chemical_formula_sum              "Zr4 O8"
_cell_length_a       5.1539878367877705
_cell_length_b       5.22810872
_cell_length_c       5.329696159145639
_cell_angle_alpha    90.0
_cell_angle_beta     99.43692258379697
_cell_angle_gamma    90.0

_space_group_name_H-M_alt    "P 1"
_space_group_IT_number       1

loop_
  _space_group_symop_operation_xyz
  'x, y, z'

loop_
  _atom_site_type_symbol
  _atom_site_label
  _atom_site_symmetry_multiplicity
  _atom_site_fract_x
  _atom_site_fract_y
  _atom_site_fract_z
  _atom_site_occupancy
  Zr  Zr1       1.0  0.35059967717366014  0.12182411855386732  0.6364394981436385  1.0000
  Zr  Zr2       1.0  0.5209586391979091  0.7714312423534686  0.6172984206745156  1.0000
  Zr  Zr3       1.0  0.8500589854377409  0.6155063848684095  0.49620848506301485  1.0000
  Zr  Zr4       1.0  0.17468097260284043  0.08259986833740562  0.6104805325886433  1.0000
  O   O1        1.0  0.0060751145246413785  0.9681974409977236  0.4836477857094277  1.0000
  O   O2        1.0  0.9033979185925176  0.3805044221910512  0.8171901265194053  1.0000
  O   O3        1.0  0.5496865552314016  0.889507618551518  0.0897298815414338  1.0000
  O   O4        1.0  0.662675027262512  0.5857436701111443  0.3165142374812433  1.0000
  O   O5        1.0  0.26122403417608986  0.43737773476992814  0.44453087622561327  1.0000
  O   O6        1.0  0.6480771284928295  0.9484114384456142  0.48730513546556864  1.0000
  O   O7        1.0  0.8189085828287777  0.45168225323999156  0.7374087237589251  1.0000
  O   O8        1.0  0.4835366933187384  0.8441862981346091  0.01611542151920986  1.0000
