data_image0
_chemical_formula_structural       Zr4O8
_chemical_formula_sum              "Zr4 O8"
_cell_length_a       5.1539878367877705
_cell_length_b       5.22810872
_cell_length_c       5.329696159145639
_cell_angle_alpha    90.0
_cell_angle_beta     99.43692258379697
_cell_angle_gamma    90.0

_space_group_name_H-M_alt    "P 1"
_space_group_IT_number       1

loop_
  _space_group_symop_operation_xyz
  'x, y, z'

loop_
  _atom_site_type_symbol
  _atom_site_label
  _atom_site_symmetry_multiplicity
  _atom_site_fract_x
  _atom_site_fract_y
  _atom_site_fract_z
  _atom_site_occupancy
  Zr  Zr1       1.0  0.6235491333470939  0.5017578247399381  0.11187851956970007  1.0000
  Zr  Zr2       1.0  0.3383651798056473  0.908302771333318  0.4480265318224319  1.0000
  Zr  Zr3       1.0  0.980140863207625  0.7117875491612029  0.610066286479352  1.0000
  Zr  Zr4       1.0  0.6076649773049736  0.05163663120767836  0.4357471964398325  1.0000
  O   O1        1.0  0.6235950962631343  0.933349961792441  0.6338364160667282  1.0000
  O   O2        1.0  0.041696516791056126  0.4972326528008324  0.7635796488125628  1.0000
  O   O3        1.0  0.6175517935409367  0.7795013818073357  0.1882490847490672  1.0000
  O   O4        1.0  0.17970534252166281  0.43015516626517436  0.7196797520555229  1.0000
  O   O5        1.0  0.01757174495208602  0.7654836338161743  0.4768148304104436  1.0000
  O   O6        1.0  0.4444158896626398  0.18599352976153227  0.5340981113991603  1.0000
  O   O7        1.0  0.82497622521635  0.5773887010548631  0.8787572832155082  1.0000
  O   O8        1.0  0.2315819388799749  0.9556465283180593  0.9981640537630128  1.0000
