data_image0
_chemical_formula_structural       Zr4O8
_chemical_formula_sum              "Zr4 O8"
_cell_length_a       5.1539878367877705
_cell_length_b       5.22810872
_cell_length_c       5.329696159145639
_cell_angle_alpha    90.0
_cell_angle_beta     99.43692258379697
_cell_angle_gamma    90.0

_space_group_name_H-M_alt    "P 1"
_space_group_IT_number       1

loop_
  _space_group_symop_operation_xyz
  'x, y, z'

loop_
  _atom_site_type_symbol
  _atom_site_label
  _atom_site_symmetry_multiplicity
  _atom_site_fract_x
  _atom_site_fract_y
  _atom_site_fract_z
  _atom_site_occupancy
  Zr  Zr1       1.0  0.9963213256217798  0.0695529800688206  0.6548715516523824  1.0000
  Zr  Zr2       1.0  0.41001527959835826  0.3350186965275963  0.8585157525988585  1.0000
  Zr  Zr3       1.0  0.35413210533602246  0.8807847266633735  0.7609331963683932  1.0000
  Zr  Zr4       1.0  0.5555785371844887  0.2919784722365453  0.5226819266017237  1.0000
  O   O1        1.0  0.8983000130174759  0.18325564626765534  0.3794123216037768  1.0000
  O   O2        1.0  0.4172901788709158  0.643322733960531  0.2535638495768622  1.0000
  O   O3        1.0  0.5324329858744261  0.19846870625802637  0.851073196048393  1.0000
  O   O4        1.0  0.3687064492684371  0.29849057497330644  0.7585948719813573  1.0000
  O   O5        1.0  0.6439813864849313  0.26649085968018227  0.630895101890637  1.0000
  O   O6        1.0  0.7049855898334769  0.18235770514215233  0.8932570749298776  1.0000
  O   O7        1.0  0.2664469596908212  0.12131388068136673  0.3261966781989116  1.0000
  O   O8        1.0  0.5678143524768275  0.9323249859945459  0.388043575765078  1.0000
