data_image0
_chemical_formula_structural       Zr4O8
_chemical_formula_sum              "Zr4 O8"
_cell_length_a       5.1539878367877705
_cell_length_b       5.22810872
_cell_length_c       5.329696159145639
_cell_angle_alpha    90.0
_cell_angle_beta     99.43692258379697
_cell_angle_gamma    90.0

_space_group_name_H-M_alt    "P 1"
_space_group_IT_number       1

loop_
  _space_group_symop_operation_xyz
  'x, y, z'

loop_
  _atom_site_type_symbol
  _atom_site_label
  _atom_site_symmetry_multiplicity
  _atom_site_fract_x
  _atom_site_fract_y
  _atom_site_fract_z
  _atom_site_occupancy
  Zr  Zr1       1.0  0.09065794119943738  0.8213093586354248  0.2735778677715306  1.0000
  Zr  Zr2       1.0  0.30862661118745116  0.10180389713531035  0.6329404406629626  1.0000
  Zr  Zr3       1.0  0.48333900688147935  0.18547233225444693  0.4597603571319109  1.0000
  Zr  Zr4       1.0  0.6120504686479133  0.3670365534298634  0.482809628532177  1.0000
  O   O1        1.0  0.2634174903632456  0.16811183645852168  0.3848763254618106  1.0000
  O   O2        1.0  0.16601895813051115  0.3570698142275788  0.7517475084564342  1.0000
  O   O3        1.0  0.26110457119501973  0.2271068427210139  0.9214628016712223  1.0000
  O   O4        1.0  0.14867759034921235  0.22031069406267179  0.5817479236332446  1.0000
  O   O5        1.0  0.09087669355691474  0.2988672528122187  0.18747555193266052  1.0000
  O   O6        1.0  0.5263107068591353  0.5992579397460673  0.23045915424616714  1.0000
  O   O7        1.0  0.6836516834800008  0.6830213801306826  0.4645653615098624  1.0000
  O   O8        1.0  0.002405592060284789  0.07638479322490355  0.6191040430377157  1.0000
