data_image0
_chemical_formula_structural       Zr4O8
_chemical_formula_sum              "Zr4 O8"
_cell_length_a       5.1539878367877705
_cell_length_b       5.22810872
_cell_length_c       5.329696159145639
_cell_angle_alpha    90.0
_cell_angle_beta     99.43692258379697
_cell_angle_gamma    90.0

_space_group_name_H-M_alt    "P 1"
_space_group_IT_number       1

loop_
  _space_group_symop_operation_xyz
  'x, y, z'

loop_
  _atom_site_type_symbol
  _atom_site_label
  _atom_site_symmetry_multiplicity
  _atom_site_fract_x
  _atom_site_fract_y
  _atom_site_fract_z
  _atom_site_occupancy
  Zr  Zr1       1.0  0.5510187131874815  0.9812366077601009  0.7371704804508994  1.0000
  Zr  Zr2       1.0  0.7042346133455508  0.8030446327552614  0.19769834652859952  1.0000
  Zr  Zr3       1.0  0.8640793695277851  0.31884926504644895  0.33373994640325755  1.0000
  Zr  Zr4       1.0  0.5947206784962233  0.45048758391706656  0.3321860110312098  1.0000
  O   O1        1.0  0.9435349597300728  0.0821550748496307  0.9446052921985717  1.0000
  O   O2        1.0  0.6834062037521349  0.9599376806582569  0.24584416480625748  1.0000
  O   O3        1.0  0.6422803007503219  0.2188471975321633  0.3363806808168768  1.0000
  O   O4        1.0  0.4600200532550307  0.953844142679074  0.2983989186541187  1.0000
  O   O5        1.0  0.899157268492921  0.25604607284512326  0.17183689341850794  1.0000
  O   O6        1.0  0.50276269250854  0.7336304920896026  0.8109449253271472  1.0000
  O   O7        1.0  0.6445913824879144  0.9978760187489719  0.29850940797546244  1.0000
  O   O8        1.0  0.0062192996130221445  0.663777926512017  0.7863109332881297  1.0000
