data_image0
_chemical_formula_structural       Zr4O8
_chemical_formula_sum              "Zr4 O8"
_cell_length_a       5.1539878367877705
_cell_length_b       5.22810872
_cell_length_c       5.329696159145639
_cell_angle_alpha    90.0
_cell_angle_beta     99.43692258379697
_cell_angle_gamma    90.0

_space_group_name_H-M_alt    "P 1"
_space_group_IT_number       1

loop_
  _space_group_symop_operation_xyz
  'x, y, z'

loop_
  _atom_site_type_symbol
  _atom_site_label
  _atom_site_symmetry_multiplicity
  _atom_site_fract_x
  _atom_site_fract_y
  _atom_site_fract_z
  _atom_site_occupancy
  Zr  Zr1       1.0  0.3272145016988677  0.14641936023529745  0.4963844500803445  1.0000
  Zr  Zr2       1.0  0.3821963858349342  0.9303990011619372  0.47448648400160387  1.0000
  Zr  Zr3       1.0  0.8919520728781958  0.034496619940421525  0.8984244121961549  1.0000
  Zr  Zr4       1.0  0.9933155615689646  0.0816493192207961  0.2940295281756615  1.0000
  O   O1        1.0  0.39765527018453994  0.48781040292514444  0.42936488500298964  1.0000
  O   O2        1.0  0.2484668440503235  0.9684441871736098  0.8125669092713217  1.0000
  O   O3        1.0  0.41390112123771416  0.8395628446003514  0.8134271229855035  1.0000
  O   O4        1.0  0.5061749728886582  0.7088447110552352  0.2726657006854083  1.0000
  O   O5        1.0  0.26113582209085706  0.8397524388581239  0.7916231266613987  1.0000
  O   O6        1.0  0.07541156686468575  0.5177314036569882  0.6932680262363295  1.0000
  O   O7        1.0  0.23075706513872518  0.2546884673345793  0.02626411982497956  1.0000
  O   O8        1.0  0.6943512477054412  0.14298900130709313  0.18449695290152235  1.0000
