data_image0
_chemical_formula_structural       Zr4O8
_chemical_formula_sum              "Zr4 O8"
_cell_length_a       5.1539878367877705
_cell_length_b       5.22810872
_cell_length_c       5.329696159145639
_cell_angle_alpha    90.0
_cell_angle_beta     99.43692258379697
_cell_angle_gamma    90.0

_space_group_name_H-M_alt    "P 1"
_space_group_IT_number       1

loop_
  _space_group_symop_operation_xyz
  'x, y, z'

loop_
  _atom_site_type_symbol
  _atom_site_label
  _atom_site_symmetry_multiplicity
  _atom_site_fract_x
  _atom_site_fract_y
  _atom_site_fract_z
  _atom_site_occupancy
  Zr  Zr1       1.0  0.19294077760309492  0.1251636257081543  0.2600618776454553  1.0000
  Zr  Zr2       1.0  0.04959361783852945  0.39718088317459266  0.6991971891343702  1.0000
  Zr  Zr3       1.0  0.24917004941413978  0.8281324069121361  0.1765874606766138  1.0000
  Zr  Zr4       1.0  0.8026677175703449  0.15539981838413652  0.34793868014240203  1.0000
  O   O1        1.0  0.07578896148051051  0.4085032312983685  0.6828627098587496  1.0000
  O   O2        1.0  0.5769748547443498  0.09931766282487331  0.8396545845900576  1.0000
  O   O3        1.0  0.7548075744599956  0.5507515184715075  0.49002736533232394  1.0000
  O   O4        1.0  0.7452369459944599  0.49866456301511874  0.2835834242067108  1.0000
  O   O5        1.0  0.8841199141320217  0.09045612863413055  0.23787239662380344  1.0000
  O   O6        1.0  0.8426289681149584  0.709402660686905  0.06393481867967743  1.0000
  O   O7        1.0  0.3712246839201825  0.7546951308561465  0.7185857829613553  1.0000
  O   O8        1.0  0.1975715291048905  0.21209112340396485  0.4293130969409713  1.0000
