data_image0
_chemical_formula_structural       Zr4O8
_chemical_formula_sum              "Zr4 O8"
_cell_length_a       5.1539878367877705
_cell_length_b       5.22810872
_cell_length_c       5.329696159145639
_cell_angle_alpha    90.0
_cell_angle_beta     99.43692258379697
_cell_angle_gamma    90.0

_space_group_name_H-M_alt    "P 1"
_space_group_IT_number       1

loop_
  _space_group_symop_operation_xyz
  'x, y, z'

loop_
  _atom_site_type_symbol
  _atom_site_label
  _atom_site_symmetry_multiplicity
  _atom_site_fract_x
  _atom_site_fract_y
  _atom_site_fract_z
  _atom_site_occupancy
  Zr  Zr1       1.0  0.8491416155695788  0.24194324807213619  0.16887677572704596  1.0000
  Zr  Zr2       1.0  0.48821126724172537  0.49604067772120786  0.1492221981358437  1.0000
  Zr  Zr3       1.0  0.3137328337887997  0.230645384332951  0.719200519761225  1.0000
  Zr  Zr4       1.0  0.45616530787018683  0.9383199992278732  0.18715237590372347  1.0000
  O   O1        1.0  0.18335083695937548  0.3636224205508505  0.037012317547175044  1.0000
  O   O2        1.0  0.7460564554238456  0.8677277564889563  0.49289777273818336  1.0000
  O   O3        1.0  0.5665424312024854  0.5876765498988383  0.11905283734624206  1.0000
  O   O4        1.0  0.10370998101078516  0.7567457048636079  0.6739848990596293  1.0000
  O   O5        1.0  0.34287755993313773  0.1720460343955148  0.7761079602350272  1.0000
  O   O6        1.0  0.744476474532938  0.32724859201866874  0.7351932741385117  1.0000
  O   O7        1.0  0.3446539171453491  0.784899388511092  0.8515759209468001  1.0000
  O   O8        1.0  0.5647500459345292  0.3519234842306105  0.12460380261597637  1.0000
