data_image0
_chemical_formula_structural       Zr4O8
_chemical_formula_sum              "Zr4 O8"
_cell_length_a       5.1539878367877705
_cell_length_b       5.22810872
_cell_length_c       5.329696159145639
_cell_angle_alpha    90.0
_cell_angle_beta     99.43692258379697
_cell_angle_gamma    90.0

_space_group_name_H-M_alt    "P 1"
_space_group_IT_number       1

loop_
  _space_group_symop_operation_xyz
  'x, y, z'

loop_
  _atom_site_type_symbol
  _atom_site_label
  _atom_site_symmetry_multiplicity
  _atom_site_fract_x
  _atom_site_fract_y
  _atom_site_fract_z
  _atom_site_occupancy
  Zr  Zr1       1.0  0.2940465196761419  0.03795430526324495  0.6123025996267693  1.0000
  Zr  Zr2       1.0  0.041184747230516905  0.5707676592545194  0.7844419252063384  1.0000
  Zr  Zr3       1.0  0.7385425410957698  0.8126541368200204  0.31495429151930665  1.0000
  Zr  Zr4       1.0  0.2150686762095897  0.08355135904749211  0.6242361448389513  1.0000
  O   O1        1.0  0.9984330028089587  0.3154542451770723  0.43907939249356787  1.0000
  O   O2        1.0  0.5170580127002609  0.02279399325827569  0.8339872365858447  1.0000
  O   O3        1.0  0.7992016523836334  0.001570449402123586  0.4774691493128138  1.0000
  O   O4        1.0  0.8838674164609142  0.10259498903582775  0.25322122916575296  1.0000
  O   O5        1.0  0.40899561090503234  0.012996532214934575  0.12191680768381019  1.0000
  O   O6        1.0  0.8055683027906113  0.44450216901765316  0.7848969227454852  1.0000
  O   O7        1.0  0.1579169844267696  0.9302183977424363  0.7600192260432532  1.0000
  O   O8        1.0  0.5407123239217135  0.4838596950765037  0.833509554293336  1.0000
