data_image0
_chemical_formula_structural       Zr4O8
_chemical_formula_sum              "Zr4 O8"
_cell_length_a       5.1539878367877705
_cell_length_b       5.22810872
_cell_length_c       5.329696159145639
_cell_angle_alpha    90.0
_cell_angle_beta     99.43692258379697
_cell_angle_gamma    90.0

_space_group_name_H-M_alt    "P 1"
_space_group_IT_number       1

loop_
  _space_group_symop_operation_xyz
  'x, y, z'

loop_
  _atom_site_type_symbol
  _atom_site_label
  _atom_site_symmetry_multiplicity
  _atom_site_fract_x
  _atom_site_fract_y
  _atom_site_fract_z
  _atom_site_occupancy
  Zr  Zr1       1.0  0.3635471209345198  0.6270627138969362  0.3801279909847253  1.0000
  Zr  Zr2       1.0  0.031082113749945073  0.8250175137203009  0.9580959867867315  1.0000
  Zr  Zr3       1.0  0.46209526644097965  0.48036193604758504  0.01797114773272298  1.0000
  Zr  Zr4       1.0  0.3619677085649169  0.5807487276149854  0.07448427605744601  1.0000
  O   O1        1.0  0.6847636407388169  0.17508253146950414  0.5293379991623439  1.0000
  O   O2        1.0  0.868312818997719  0.24970977762920987  0.25340833231399024  1.0000
  O   O3        1.0  0.5469716354990197  0.43023060983021466  0.3219146175150591  1.0000
  O   O4        1.0  0.6424074161687107  0.027498981618844454  0.13677006740147846  1.0000
  O   O5        1.0  0.13334516041287703  0.6443601159841883  0.9169540365828794  1.0000
  O   O6        1.0  0.2714725514714562  0.3212632339908911  0.8212268378104337  1.0000
  O   O7        1.0  0.6281668840454593  0.8921730757147683  0.8839187565629523  1.0000
  O   O8        1.0  0.4710892022461728  0.8794191381314302  0.29196743349235454  1.0000
