data_image0
_chemical_formula_structural       Zr4O8
_chemical_formula_sum              "Zr4 O8"
_cell_length_a       5.1539878367877705
_cell_length_b       5.22810872
_cell_length_c       5.329696159145639
_cell_angle_alpha    90.0
_cell_angle_beta     99.43692258379697
_cell_angle_gamma    90.0

_space_group_name_H-M_alt    "P 1"
_space_group_IT_number       1

loop_
  _space_group_symop_operation_xyz
  'x, y, z'

loop_
  _atom_site_type_symbol
  _atom_site_label
  _atom_site_symmetry_multiplicity
  _atom_site_fract_x
  _atom_site_fract_y
  _atom_site_fract_z
  _atom_site_occupancy
  Zr  Zr1       1.0  0.2389567737742535  0.35069888971788465  0.06610846295503592  1.0000
  Zr  Zr2       1.0  0.4276399594158651  0.5535331689409411  0.8640056854774221  1.0000
  Zr  Zr3       1.0  0.11967929935564214  0.7982854452560186  0.9932367030738263  1.0000
  Zr  Zr4       1.0  0.7832948830807647  0.453463373989095  0.7293954483344152  1.0000
  O   O1        1.0  0.7938953081910256  0.15390511659409256  0.3884996498840927  1.0000
  O   O2        1.0  0.20625271568804493  0.6201783520918553  0.8953514491595627  1.0000
  O   O3        1.0  0.19171082658393956  0.5094679460367431  0.12590980803669005  1.0000
  O   O4        1.0  0.6681166693134966  0.22326908064848405  0.31603217170020415  1.0000
  O   O5        1.0  0.3940151673249339  0.2960530115410833  0.6733068613259245  1.0000
  O   O6        1.0  0.9092047295071239  0.6559780559911701  0.05367436671582837  1.0000
  O   O7        1.0  0.9845135259641573  0.7366998977891193  0.6379174964869598  1.0000
  O   O8        1.0  0.5334367959351027  0.6601540940774129  0.013958638408439583  1.0000
