data_image0
_chemical_formula_structural       Zr4O8
_chemical_formula_sum              "Zr4 O8"
_cell_length_a       5.1539878367877705
_cell_length_b       5.22810872
_cell_length_c       5.329696159145639
_cell_angle_alpha    90.0
_cell_angle_beta     99.43692258379697
_cell_angle_gamma    90.0

_space_group_name_H-M_alt    "P 1"
_space_group_IT_number       1

loop_
  _space_group_symop_operation_xyz
  'x, y, z'

loop_
  _atom_site_type_symbol
  _atom_site_label
  _atom_site_symmetry_multiplicity
  _atom_site_fract_x
  _atom_site_fract_y
  _atom_site_fract_z
  _atom_site_occupancy
  Zr  Zr1       1.0  0.6637566181945767  0.45090206129119714  0.23919479341821592  1.0000
  Zr  Zr2       1.0  0.37331728736641523  0.1077076276421618  0.5647001405235863  1.0000
  Zr  Zr3       1.0  0.6008240409827508  0.7638394718888946  0.8990342801217555  1.0000
  Zr  Zr4       1.0  0.379852869717793  0.37692722156620384  0.6744904753407148  1.0000
  O   O1        1.0  0.16871259030398278  0.27819784168996264  0.3313403463925475  1.0000
  O   O2        1.0  0.9934343648602777  0.49024204797145643  0.8723112860988496  1.0000
  O   O3        1.0  0.7920943796849436  0.6672204359820917  0.784053461349087  1.0000
  O   O4        1.0  0.4039854336839319  0.19087872373927128  0.9820918199690296  1.0000
  O   O5        1.0  0.4662791616946329  0.29787660978512776  0.07251136491833421  1.0000
  O   O6        1.0  0.14770393447023977  0.787740933180693  0.988045605357474  1.0000
  O   O7        1.0  0.2794175314170211  0.031363796462631655  0.5418612487913776  1.0000
  O   O8        1.0  0.7520843978221956  0.39019095903148227  0.9370211991562005  1.0000
