data_image0
_chemical_formula_structural       Zr4O8
_chemical_formula_sum              "Zr4 O8"
_cell_length_a       5.1539878367877705
_cell_length_b       5.22810872
_cell_length_c       5.329696159145639
_cell_angle_alpha    90.0
_cell_angle_beta     99.43692258379697
_cell_angle_gamma    90.0

_space_group_name_H-M_alt    "P 1"
_space_group_IT_number       1

loop_
  _space_group_symop_operation_xyz
  'x, y, z'

loop_
  _atom_site_type_symbol
  _atom_site_label
  _atom_site_symmetry_multiplicity
  _atom_site_fract_x
  _atom_site_fract_y
  _atom_site_fract_z
  _atom_site_occupancy
  Zr  Zr1       1.0  0.4698511116327191  0.23626081278619715  0.5661474242486708  1.0000
  Zr  Zr2       1.0  0.9790521044221201  0.6886248654425344  0.3946074476991326  1.0000
  Zr  Zr3       1.0  0.20915262965909776  0.22490513601474715  0.9268822948280544  1.0000
  Zr  Zr4       1.0  0.9668482544874077  0.4242892005292651  0.3505691529178989  1.0000
  O   O1        1.0  0.15220946627491116  0.7331085049826918  0.7415185242361275  1.0000
  O   O2        1.0  0.24309347652380808  0.8566003748040742  0.9641198190986424  1.0000
  O   O3        1.0  0.14236767743367906  0.8350821322511486  0.6717040303728004  1.0000
  O   O4        1.0  0.49231802878141195  0.06182449277607516  0.9445553889361138  1.0000
  O   O5        1.0  0.6367351613175352  0.5286500052390508  0.5788080624521399  1.0000
  O   O6        1.0  0.28865624050085614  0.3394590717016186  0.9990105936456395  1.0000
  O   O7        1.0  0.24025000468285995  0.6061109463486396  0.31470136242651847  1.0000
  O   O8        1.0  0.25062644842343307  0.7555472100575074  0.36337004264430917  1.0000
