data_image0
_chemical_formula_structural       Zr4O8
_chemical_formula_sum              "Zr4 O8"
_cell_length_a       5.1539878367877705
_cell_length_b       5.22810872
_cell_length_c       5.329696159145639
_cell_angle_alpha    90.0
_cell_angle_beta     99.43692258379697
_cell_angle_gamma    90.0

_space_group_name_H-M_alt    "P 1"
_space_group_IT_number       1

loop_
  _space_group_symop_operation_xyz
  'x, y, z'

loop_
  _atom_site_type_symbol
  _atom_site_label
  _atom_site_symmetry_multiplicity
  _atom_site_fract_x
  _atom_site_fract_y
  _atom_site_fract_z
  _atom_site_occupancy
  Zr  Zr1       1.0  0.18537850491887653  0.6304091916333965  0.5157087897515282  1.0000
  Zr  Zr2       1.0  0.6706281373765943  0.2786718182374077  0.05216847079496301  1.0000
  Zr  Zr3       1.0  0.5158712387411093  0.0285760986930923  0.058442127891670914  1.0000
  Zr  Zr4       1.0  0.14368571456982826  0.3393568248216168  0.13178604947527184  1.0000
  O   O1        1.0  0.38203740644465256  0.6789213657761515  0.6494483762287935  1.0000
  O   O2        1.0  0.9565097220990086  0.10917618046377525  0.9435302661066176  1.0000
  O   O3        1.0  0.60928787997576  0.34246009031133984  0.39156334624072997  1.0000
  O   O4        1.0  0.6605201277751029  0.6831588150617307  0.3109100534841822  1.0000
  O   O5        1.0  0.7263645277158659  0.7070473668570525  0.03569565564315624  1.0000
  O   O6        1.0  0.08249625398429217  0.34882860242314084  0.8705606561930992  1.0000
  O   O7        1.0  0.9118844625976114  0.6773421337423494  0.4888659974890004  1.0000
  O   O8        1.0  0.6928785632326928  0.45574194186995953  0.7071799013005657  1.0000
