data_image0
_chemical_formula_structural       Zr4O8
_chemical_formula_sum              "Zr4 O8"
_cell_length_a       5.1539878367877705
_cell_length_b       5.22810872
_cell_length_c       5.329696159145639
_cell_angle_alpha    90.0
_cell_angle_beta     99.43692258379697
_cell_angle_gamma    90.0

_space_group_name_H-M_alt    "P 1"
_space_group_IT_number       1

loop_
  _space_group_symop_operation_xyz
  'x, y, z'

loop_
  _atom_site_type_symbol
  _atom_site_label
  _atom_site_symmetry_multiplicity
  _atom_site_fract_x
  _atom_site_fract_y
  _atom_site_fract_z
  _atom_site_occupancy
  Zr  Zr1       1.0  0.30039791922201164  0.01060223862256926  0.6672806131508664  1.0000
  Zr  Zr2       1.0  0.8733137943860854  0.4229063320417765  0.09656975598529094  1.0000
  Zr  Zr3       1.0  0.8172454175707351  0.24952996698523666  0.7341771921929405  1.0000
  Zr  Zr4       1.0  0.02357337963814432  0.5952082899892863  0.1269267651044954  1.0000
  O   O1        1.0  0.3059877767215866  0.4450773479952943  0.004089316442616564  1.0000
  O   O2        1.0  0.5796060624538164  0.22386540689561585  0.09850881571485992  1.0000
  O   O3        1.0  0.9572664126463968  0.9418588245797483  0.9707512877685573  1.0000
  O   O4        1.0  0.43989102664895086  0.7526713633510944  0.5006160141440947  1.0000
  O   O5        1.0  0.07997220979699537  0.26795691242817243  0.5871321859691356  1.0000
  O   O6        1.0  0.42322366004453116  0.6538517056953559  0.10990331545780307  1.0000
  O   O7        1.0  0.47460487233584203  0.8272884661197306  0.7382546662327769  1.0000
  O   O8        1.0  0.7031957844480061  0.7058214743745452  0.8006935863078111  1.0000
