data_image0
_chemical_formula_structural       Zr4O8
_chemical_formula_sum              "Zr4 O8"
_cell_length_a       5.1539878367877705
_cell_length_b       5.22810872
_cell_length_c       5.329696159145639
_cell_angle_alpha    90.0
_cell_angle_beta     99.43692258379697
_cell_angle_gamma    90.0

_space_group_name_H-M_alt    "P 1"
_space_group_IT_number       1

loop_
  _space_group_symop_operation_xyz
  'x, y, z'

loop_
  _atom_site_type_symbol
  _atom_site_label
  _atom_site_symmetry_multiplicity
  _atom_site_fract_x
  _atom_site_fract_y
  _atom_site_fract_z
  _atom_site_occupancy
  Zr  Zr1       1.0  0.3633018770022165  0.12860064738814714  0.4171343508528018  1.0000
  Zr  Zr2       1.0  0.942507797180073  0.2523632015271904  0.8957574811373501  1.0000
  Zr  Zr3       1.0  0.7776952058604181  0.4674971181668113  0.5609256747863416  1.0000
  Zr  Zr4       1.0  0.08659573287799693  0.09135794319717938  0.23933860480851088  1.0000
  O   O1        1.0  0.8740971718441877  0.8926258182289892  0.7837905390083517  1.0000
  O   O2        1.0  0.4673437865740411  0.5614315605574376  0.8273151007016502  1.0000
  O   O3        1.0  0.9021333661053141  0.25343665890792977  0.19868426124988048  1.0000
  O   O4        1.0  0.23460337115406205  0.7713558554400599  0.3431172902456918  1.0000
  O   O5        1.0  0.12158447591094124  0.3861163159336485  0.11032577031322433  1.0000
  O   O6        1.0  0.13685608754972378  0.7881951940766427  0.6830083190762881  1.0000
  O   O7        1.0  0.044215134159690805  0.8253396086358329  0.33652981558077855  1.0000
  O   O8        1.0  0.939909160210938  0.29986069702635376  0.7226143199496615  1.0000
