data_image0
_chemical_formula_structural       Zr4O8
_chemical_formula_sum              "Zr4 O8"
_cell_length_a       5.1539878367877705
_cell_length_b       5.22810872
_cell_length_c       5.329696159145639
_cell_angle_alpha    90.0
_cell_angle_beta     99.43692258379697
_cell_angle_gamma    90.0

_space_group_name_H-M_alt    "P 1"
_space_group_IT_number       1

loop_
  _space_group_symop_operation_xyz
  'x, y, z'

loop_
  _atom_site_type_symbol
  _atom_site_label
  _atom_site_symmetry_multiplicity
  _atom_site_fract_x
  _atom_site_fract_y
  _atom_site_fract_z
  _atom_site_occupancy
  Zr  Zr1       1.0  0.7765483568400771  0.07760494714479549  0.44080832614907806  1.0000
  Zr  Zr2       1.0  0.5090943330375239  0.915555922043561  0.2937091880412943  1.0000
  Zr  Zr3       1.0  0.8253282655164291  0.5748972444145992  0.5245214586329183  1.0000
  Zr  Zr4       1.0  0.33048524684269864  0.2431453840017621  0.6702267082124962  1.0000
  O   O1        1.0  0.06061253804452349  0.8457801130777156  0.39114173175291356  1.0000
  O   O2        1.0  0.9718547357287965  0.22947276872933742  0.9940766081890882  1.0000
  O   O3        1.0  0.5429871976831793  0.056007494683480985  0.7077755111266839  1.0000
  O   O4        1.0  0.7066369570170679  0.5979844553833438  0.08968941539441033  1.0000
  O   O5        1.0  0.07127935423036114  0.8925221650013135  0.9525027638482726  1.0000
  O   O6        1.0  0.4264548107147945  0.5819380345311842  0.45766460459630665  1.0000
  O   O7        1.0  0.03249214499750863  0.6488916297872294  0.21800825702071336  1.0000
  O   O8        1.0  0.9994545897080522  0.8226122105486215  0.5512612893159705  1.0000
