data_image0
_chemical_formula_structural       Zr4O8
_chemical_formula_sum              "Zr4 O8"
_cell_length_a       5.1539878367877705
_cell_length_b       5.22810872
_cell_length_c       5.329696159145639
_cell_angle_alpha    90.0
_cell_angle_beta     99.43692258379697
_cell_angle_gamma    90.0

_space_group_name_H-M_alt    "P 1"
_space_group_IT_number       1

loop_
  _space_group_symop_operation_xyz
  'x, y, z'

loop_
  _atom_site_type_symbol
  _atom_site_label
  _atom_site_symmetry_multiplicity
  _atom_site_fract_x
  _atom_site_fract_y
  _atom_site_fract_z
  _atom_site_occupancy
  Zr  Zr1       1.0  0.7787142233017841  0.42410110706906323  0.8884947229227826  1.0000
  Zr  Zr2       1.0  0.8637019684711955  0.21040086368706223  0.9190889521440657  1.0000
  Zr  Zr3       1.0  0.2932813123764726  0.821697816290369  0.8145291369461098  1.0000
  Zr  Zr4       1.0  0.6952031656770084  0.596791364349329  0.04303999991969576  1.0000
  O   O1        1.0  0.9702087944009499  0.08949074324781847  0.9697409772262429  1.0000
  O   O2        1.0  0.13680138571006495  0.9357938702387827  0.773659154553382  1.0000
  O   O3        1.0  0.019814275970094997  0.09896021768624763  0.3117427194789997  1.0000
  O   O4        1.0  0.8376738447181271  0.2168323363498138  0.9086514250117297  1.0000
  O   O5        1.0  0.14555296901433223  0.6045412156990579  0.7497889251410079  1.0000
  O   O6        1.0  0.22540693075981366  0.43099115321217596  0.10356465812052207  1.0000
  O   O7        1.0  0.08903815210735999  0.3013102805174306  0.9275308039076648  1.0000
  O   O8        1.0  0.9619549275255359  0.53165066167562  0.03819978812883562  1.0000
