data_image0
_chemical_formula_structural       Zr4O8
_chemical_formula_sum              "Zr4 O8"
_cell_length_a       5.1539878367877705
_cell_length_b       5.22810872
_cell_length_c       5.329696159145639
_cell_angle_alpha    90.0
_cell_angle_beta     99.43692258379697
_cell_angle_gamma    90.0

_space_group_name_H-M_alt    "P 1"
_space_group_IT_number       1

loop_
  _space_group_symop_operation_xyz
  'x, y, z'

loop_
  _atom_site_type_symbol
  _atom_site_label
  _atom_site_symmetry_multiplicity
  _atom_site_fract_x
  _atom_site_fract_y
  _atom_site_fract_z
  _atom_site_occupancy
  Zr  Zr1       1.0  0.24482404093583554  0.07697209361516855  0.7751973037793647  1.0000
  Zr  Zr2       1.0  0.3694552081332034  0.1815626092584317  0.2877691336823869  1.0000
  Zr  Zr3       1.0  0.9940890200256343  0.6322535964745146  0.698391776242012  1.0000
  Zr  Zr4       1.0  0.24616057466856311  0.27883484172867945  0.48281075936275464  1.0000
  O   O1        1.0  0.16922666077130621  0.6358025482119416  0.49440211426620806  1.0000
  O   O2        1.0  0.1740501187302783  0.515237744399414  0.8203178725147033  1.0000
  O   O3        1.0  0.13829490448896564  0.6249923273674085  0.5389409113157662  1.0000
  O   O4        1.0  0.15467204607368856  0.9476950828155974  0.8001863670482123  1.0000
  O   O5        1.0  0.14504950816520612  0.28323905833157426  0.40973019079032014  1.0000
  O   O6        1.0  0.809351745437688  0.9754597202982112  0.1862329553299933  1.0000
  O   O7        1.0  0.2115024459655217  0.23777003648499395  0.41461013591711193  1.0000
  O   O8        1.0  0.9240587505620361  0.7792569775993279  0.0963948119810425  1.0000
