data_image0
_chemical_formula_structural       Zr4O8
_chemical_formula_sum              "Zr4 O8"
_cell_length_a       5.1539878367877705
_cell_length_b       5.22810872
_cell_length_c       5.329696159145639
_cell_angle_alpha    90.0
_cell_angle_beta     99.43692258379697
_cell_angle_gamma    90.0

_space_group_name_H-M_alt    "P 1"
_space_group_IT_number       1

loop_
  _space_group_symop_operation_xyz
  'x, y, z'

loop_
  _atom_site_type_symbol
  _atom_site_label
  _atom_site_symmetry_multiplicity
  _atom_site_fract_x
  _atom_site_fract_y
  _atom_site_fract_z
  _atom_site_occupancy
  Zr  Zr1       1.0  0.448183489068672  0.8754088236470743  0.26293589530931527  1.0000
  Zr  Zr2       1.0  0.4791640520713081  0.6394396811174925  0.1528270098809239  1.0000
  Zr  Zr3       1.0  0.05378070231742438  0.7357409266750715  0.08020954346231934  1.0000
  Zr  Zr4       1.0  0.29285733489808563  0.11233698591438301  0.22493029482827875  1.0000
  O   O1        1.0  0.8667385301873445  0.13512235694415242  0.8103541441668121  1.0000
  O   O2        1.0  0.7824534385705366  0.24507374782002472  0.6647024888420034  1.0000
  O   O3        1.0  0.8436586623922482  0.5887743206956804  0.5021434102492321  1.0000
  O   O4        1.0  0.6052904149274978  0.14906112702309215  0.28539547958015277  1.0000
  O   O5        1.0  0.1222737132287719  0.4670012726703474  0.8030493503394931  1.0000
  O   O6        1.0  0.7697210817692479  0.1828279303125342  0.8776873687282425  1.0000
  O   O7        1.0  0.7326855669655838  0.49971664227848045  0.9860970203822461  1.0000
  O   O8        1.0  0.38650254285816743  0.179325641678858  0.004702650247009332  1.0000
