data_image0
_chemical_formula_structural       Zr4O8
_chemical_formula_sum              "Zr4 O8"
_cell_length_a       5.1539878367877705
_cell_length_b       5.22810872
_cell_length_c       5.329696159145639
_cell_angle_alpha    90.0
_cell_angle_beta     99.43692258379697
_cell_angle_gamma    90.0

_space_group_name_H-M_alt    "P 1"
_space_group_IT_number       1

loop_
  _space_group_symop_operation_xyz
  'x, y, z'

loop_
  _atom_site_type_symbol
  _atom_site_label
  _atom_site_symmetry_multiplicity
  _atom_site_fract_x
  _atom_site_fract_y
  _atom_site_fract_z
  _atom_site_occupancy
  Zr  Zr1       1.0  0.48702215723796627  0.9790548481003327  0.036782097474093334  1.0000
  Zr  Zr2       1.0  0.23785356018088954  0.3993251068885182  0.9348515066854688  1.0000
  Zr  Zr3       1.0  0.08698194065805342  0.10711448684096325  0.22660794190848366  1.0000
  Zr  Zr4       1.0  0.6643499017598278  0.3129424835113559  0.24161921825078636  1.0000
  O   O1        1.0  0.9995657173325707  0.6461522296262423  0.11909432001405307  1.0000
  O   O2        1.0  0.25394506305335085  0.6427976909234303  0.684145710972679  1.0000
  O   O3        1.0  0.7584623174349332  0.2101037748040966  0.6765583927718666  1.0000
  O   O4        1.0  0.5417392787943953  0.045843833501400866  0.6789152160353176  1.0000
  O   O5        1.0  0.47164217842988165  0.1960585164263975  0.15299736718240453  1.0000
  O   O6        1.0  0.524080412983821  0.43703174532060274  0.9130605568139556  1.0000
  O   O7        1.0  0.4828231190817647  0.36881861578754105  0.4457401601396427  1.0000
  O   O8        1.0  0.6378840667216803  0.4467468322711792  0.6042636120216613  1.0000
