data_image0
_chemical_formula_structural       Zr4O8
_chemical_formula_sum              "Zr4 O8"
_cell_length_a       5.1539878367877705
_cell_length_b       5.22810872
_cell_length_c       5.329696159145639
_cell_angle_alpha    90.0
_cell_angle_beta     99.43692258379697
_cell_angle_gamma    90.0

_space_group_name_H-M_alt    "P 1"
_space_group_IT_number       1

loop_
  _space_group_symop_operation_xyz
  'x, y, z'

loop_
  _atom_site_type_symbol
  _atom_site_label
  _atom_site_symmetry_multiplicity
  _atom_site_fract_x
  _atom_site_fract_y
  _atom_site_fract_z
  _atom_site_occupancy
  Zr  Zr1       1.0  0.15838827335313788  0.48801583170822305  0.7969857301252752  1.0000
  Zr  Zr2       1.0  0.37972514785385947  0.8313703432049477  0.9404487551220369  1.0000
  Zr  Zr3       1.0  0.12172699058070258  0.12889312328252878  0.6219152725806367  1.0000
  Zr  Zr4       1.0  0.5615549559444033  0.7359157866784027  0.2723199347167533  1.0000
  O   O1        1.0  0.5187773221510472  0.7969297101674329  0.2569214807679785  1.0000
  O   O2        1.0  0.1889269947780292  0.19614397362978053  0.5854156937803978  1.0000
  O   O3        1.0  0.579098586080903  0.1697069899656114  0.14612416265939387  1.0000
  O   O4        1.0  0.04311469902384957  0.7332770370592074  0.32691772171101974  1.0000
  O   O5        1.0  0.8570967264157634  0.38128211299496684  0.4397443952792166  1.0000
  O   O6        1.0  0.833542262267823  0.5334855749603449  0.8114422849501679  1.0000
  O   O7        1.0  0.3477810242684889  0.029959296102180843  0.8927672011643804  1.0000
  O   O8        1.0  0.15717866399840297  0.8068382504281928  0.40376054142318907  1.0000
