data_image0
_chemical_formula_structural       Zr4O8
_chemical_formula_sum              "Zr4 O8"
_cell_length_a       5.1539878367877705
_cell_length_b       5.22810872
_cell_length_c       5.329696159145639
_cell_angle_alpha    90.0
_cell_angle_beta     99.43692258379697
_cell_angle_gamma    90.0

_space_group_name_H-M_alt    "P 1"
_space_group_IT_number       1

loop_
  _space_group_symop_operation_xyz
  'x, y, z'

loop_
  _atom_site_type_symbol
  _atom_site_label
  _atom_site_symmetry_multiplicity
  _atom_site_fract_x
  _atom_site_fract_y
  _atom_site_fract_z
  _atom_site_occupancy
  Zr  Zr1       1.0  0.4341826724849822  0.3854194937717459  0.7130874439546897  1.0000
  Zr  Zr2       1.0  0.07456996905806967  0.4913046539876813  0.6995733307892991  1.0000
  Zr  Zr3       1.0  0.945106845335463  0.7076596920081089  0.21073637830858516  1.0000
  Zr  Zr4       1.0  0.8992903041092888  0.25774952458207334  0.24576972900010574  1.0000
  O   O1        1.0  0.026468522806155192  0.3265552891660164  0.6440520575667428  1.0000
  O   O2        1.0  0.12400730788307612  0.16563158834235026  0.6768969273004899  1.0000
  O   O3        1.0  0.9374078667687167  0.504755481720693  0.33579602743510506  1.0000
  O   O4        1.0  0.22402095128580868  0.3699239875625038  0.6080624909292638  1.0000
  O   O5        1.0  0.5311940227819605  0.8192612833634598  0.4502682443173569  1.0000
  O   O6        1.0  0.05942527553780508  0.9551918977713783  0.33185142501847054  1.0000
  O   O7        1.0  0.9362142982773101  0.8001109978469074  0.1835588374742656  1.0000
  O   O8        1.0  0.9511562177825867  0.19076416613485137  0.6762991605762565  1.0000
