data_image0
_chemical_formula_structural       Zr4O8
_chemical_formula_sum              "Zr4 O8"
_cell_length_a       5.1539878367877705
_cell_length_b       5.22810872
_cell_length_c       5.329696159145639
_cell_angle_alpha    90.0
_cell_angle_beta     99.43692258379697
_cell_angle_gamma    90.0

_space_group_name_H-M_alt    "P 1"
_space_group_IT_number       1

loop_
  _space_group_symop_operation_xyz
  'x, y, z'

loop_
  _atom_site_type_symbol
  _atom_site_label
  _atom_site_symmetry_multiplicity
  _atom_site_fract_x
  _atom_site_fract_y
  _atom_site_fract_z
  _atom_site_occupancy
  Zr  Zr1       1.0  0.5712776265089534  0.2881169175411973  0.33284776912359204  1.0000
  Zr  Zr2       1.0  0.6364444199692567  0.24521599179090003  0.4542046167320972  1.0000
  Zr  Zr3       1.0  0.4311862117311276  0.4762114990752071  0.23373371919295316  1.0000
  Zr  Zr4       1.0  0.9533920476889151  0.3231493671012222  0.4545634772522078  1.0000
  O   O1        1.0  0.828516423488832  0.8204959539510386  0.25700923480307836  1.0000
  O   O2        1.0  0.1961747450757425  0.09212584120066936  0.6001396312845841  1.0000
  O   O3        1.0  0.8989229680204573  0.09141502724452266  0.8294347966404105  1.0000
  O   O4        1.0  0.8353848427288799  0.4779527947092923  0.12283044692981093  1.0000
  O   O5        1.0  0.27420797767064187  0.45176365363565196  0.5499625488955902  1.0000
  O   O6        1.0  0.16200430373234198  0.08671229513392831  0.7727208908295777  1.0000
  O   O7        1.0  0.8871450214431036  0.2864965442704044  0.26983267946053857  1.0000
  O   O8        1.0  0.02331087760473327  0.6857812076611438  0.4321828640181167  1.0000
