data_image0
_chemical_formula_structural       Zr4O8
_chemical_formula_sum              "Zr4 O8"
_cell_length_a       5.1539878367877705
_cell_length_b       5.22810872
_cell_length_c       5.329696159145639
_cell_angle_alpha    90.0
_cell_angle_beta     99.43692258379697
_cell_angle_gamma    90.0

_space_group_name_H-M_alt    "P 1"
_space_group_IT_number       1

loop_
  _space_group_symop_operation_xyz
  'x, y, z'

loop_
  _atom_site_type_symbol
  _atom_site_label
  _atom_site_symmetry_multiplicity
  _atom_site_fract_x
  _atom_site_fract_y
  _atom_site_fract_z
  _atom_site_occupancy
  Zr  Zr1       1.0  0.5993906482787992  0.6174776528482404  0.021053853120974964  1.0000
  Zr  Zr2       1.0  0.07509137054832671  0.48967412324766  0.7948741403482806  1.0000
  Zr  Zr3       1.0  0.05714697625166032  0.16675727960676534  0.05653648923571453  1.0000
  Zr  Zr4       1.0  0.10764587454167573  0.9750355779995195  0.0968299149743359  1.0000
  O   O1        1.0  0.5197985272531369  0.24377802706638718  0.09362274147576599  1.0000
  O   O2        1.0  0.616236106707226  0.6939471550450094  0.30228257130271974  1.0000
  O   O3        1.0  0.16059107427737773  0.0024539067121978064  0.44353557796391385  1.0000
  O   O4        1.0  0.6618058423694677  0.7913787593946111  0.38992927886793627  1.0000
  O   O5        1.0  0.49346653348486313  0.7998921568528186  0.12807516674543962  1.0000
  O   O6        1.0  0.8059098027989648  0.04789139785787455  0.535148226603706  1.0000
  O   O7        1.0  0.9888451177995456  0.5817506242558999  0.1896699399226236  1.0000
  O   O8        1.0  0.09440893102881764  0.7067961182435827  0.895000757372415  1.0000
