data_image0
_chemical_formula_structural       Zr4O8
_chemical_formula_sum              "Zr4 O8"
_cell_length_a       5.1539878367877705
_cell_length_b       5.22810872
_cell_length_c       5.329696159145639
_cell_angle_alpha    90.0
_cell_angle_beta     99.43692258379697
_cell_angle_gamma    90.0

_space_group_name_H-M_alt    "P 1"
_space_group_IT_number       1

loop_
  _space_group_symop_operation_xyz
  'x, y, z'

loop_
  _atom_site_type_symbol
  _atom_site_label
  _atom_site_symmetry_multiplicity
  _atom_site_fract_x
  _atom_site_fract_y
  _atom_site_fract_z
  _atom_site_occupancy
  Zr  Zr1       1.0  0.8274733002125565  0.2484890435486129  0.6159808286057853  1.0000
  Zr  Zr2       1.0  0.09822197954639122  0.8645549019553416  0.20321995100191437  1.0000
  Zr  Zr3       1.0  0.10531880379718128  0.8847625913861066  0.8948176344862118  1.0000
  Zr  Zr4       1.0  0.4119398132829457  0.2791272462433554  0.0630829993073192  1.0000
  O   O1        1.0  0.07925442210437694  0.20848033849818748  0.5327839795878297  1.0000
  O   O2        1.0  0.7112594778909909  0.7647628526524528  0.21151277337748908  1.0000
  O   O3        1.0  0.781190301923786  0.6740579398924496  0.7750333516495829  1.0000
  O   O4        1.0  0.6334338298206035  0.9532425767707764  0.4573208104372597  1.0000
  O   O5        1.0  0.5581302254171376  0.3768955110883141  0.30581510473648166  1.0000
  O   O6        1.0  0.47314872747065806  0.06757324650804719  0.9772530150957226  1.0000
  O   O7        1.0  0.28924014690348976  0.5444191370409074  0.07666854233710652  1.0000
  O   O8        1.0  0.6693138061722399  0.8319315369550412  0.4443144843717661  1.0000
