data_image0
_chemical_formula_structural       Zr4O8
_chemical_formula_sum              "Zr4 O8"
_cell_length_a       5.1539878367877705
_cell_length_b       5.22810872
_cell_length_c       5.329696159145639
_cell_angle_alpha    90.0
_cell_angle_beta     99.43692258379697
_cell_angle_gamma    90.0

_space_group_name_H-M_alt    "P 1"
_space_group_IT_number       1

loop_
  _space_group_symop_operation_xyz
  'x, y, z'

loop_
  _atom_site_type_symbol
  _atom_site_label
  _atom_site_symmetry_multiplicity
  _atom_site_fract_x
  _atom_site_fract_y
  _atom_site_fract_z
  _atom_site_occupancy
  Zr  Zr1       1.0  0.8168706452921892  0.28945043221544253  0.2492846004641418  1.0000
  Zr  Zr2       1.0  0.6108001351440819  0.2549826020406982  0.16051575517466965  1.0000
  Zr  Zr3       1.0  0.569682852906503  0.6379136483020729  0.5110933834672062  1.0000
  Zr  Zr4       1.0  0.2990460623587641  0.7454615402320286  0.10043855287447867  1.0000
  O   O1        1.0  0.0752087109981403  0.1670746658344413  0.10010160376837263  1.0000
  O   O2        1.0  0.09052957899343461  0.53381300934827  0.29407343486870197  1.0000
  O   O3        1.0  0.46423244986726475  0.13673224238681136  0.7377838825143286  1.0000
  O   O4        1.0  0.8189300209145287  0.2921894115264039  0.32268247979261355  1.0000
  O   O5        1.0  0.5482006110391131  0.09027277714259441  0.9386358845274643  1.0000
  O   O6        1.0  0.9997365892322563  0.6790426164396806  0.43189533920820367  1.0000
  O   O7        1.0  0.5552538387526731  0.788252713212934  0.32056603202634903  1.0000
  O   O8        1.0  0.7563020180470481  0.520415628303347  0.6828610736267251  1.0000
