data_image0
_chemical_formula_structural       Zr4O8
_chemical_formula_sum              "Zr4 O8"
_cell_length_a       5.1539878367877705
_cell_length_b       5.22810872
_cell_length_c       5.329696159145639
_cell_angle_alpha    90.0
_cell_angle_beta     99.43692258379697
_cell_angle_gamma    90.0

_space_group_name_H-M_alt    "P 1"
_space_group_IT_number       1

loop_
  _space_group_symop_operation_xyz
  'x, y, z'

loop_
  _atom_site_type_symbol
  _atom_site_label
  _atom_site_symmetry_multiplicity
  _atom_site_fract_x
  _atom_site_fract_y
  _atom_site_fract_z
  _atom_site_occupancy
  Zr  Zr1       1.0  0.5108863558414436  0.6136568980215547  0.6175172336595809  1.0000
  Zr  Zr2       1.0  0.894857990530074  0.36770631054560887  0.8328603833440007  1.0000
  Zr  Zr3       1.0  0.8670722944867881  0.9017283529239375  0.32058013596802937  1.0000
  Zr  Zr4       1.0  0.7504956166984496  0.9474553729189843  0.12411391963723872  1.0000
  O   O1        1.0  0.7055168473186555  0.540775095513613  0.019391126396484992  1.0000
  O   O2        1.0  0.2275466524124976  0.3711968595214401  0.7522666970253966  1.0000
  O   O3        1.0  0.7523657448931687  0.7133707714794895  0.08649761590551286  1.0000
  O   O4        1.0  0.11144850448010146  0.10523348579484626  0.8997226152857536  1.0000
  O   O5        1.0  0.8762051270554139  0.905963243685882  0.8434586732210114  1.0000
  O   O6        1.0  0.16533514972422125  0.9847193693238339  0.10091491666116958  1.0000
  O   O7        1.0  0.0048944019221419666  0.2531223990095164  0.6736711279450134  1.0000
  O   O8        1.0  0.4751577645578129  0.7013985285774496  0.22129355575609821  1.0000
