data_image0
_chemical_formula_structural       Zr4O8
_chemical_formula_sum              "Zr4 O8"
_cell_length_a       5.1539878367877705
_cell_length_b       5.22810872
_cell_length_c       5.329696159145639
_cell_angle_alpha    90.0
_cell_angle_beta     99.43692258379697
_cell_angle_gamma    90.0

_space_group_name_H-M_alt    "P 1"
_space_group_IT_number       1

loop_
  _space_group_symop_operation_xyz
  'x, y, z'

loop_
  _atom_site_type_symbol
  _atom_site_label
  _atom_site_symmetry_multiplicity
  _atom_site_fract_x
  _atom_site_fract_y
  _atom_site_fract_z
  _atom_site_occupancy
  Zr  Zr1       1.0  0.7611031674361524  0.4413607090200937  0.4787632134222299  1.0000
  Zr  Zr2       1.0  0.24656179611364593  0.15361291733353966  0.8274123365549126  1.0000
  Zr  Zr3       1.0  0.4854399165072856  0.2652132360772015  0.9922900094687037  1.0000
  Zr  Zr4       1.0  0.6165703462047127  0.0770504619465111  0.7707160674262008  1.0000
  O   O1        1.0  0.9690039581913137  0.4911181292315945  0.1185693366009799  1.0000
  O   O2        1.0  0.5737287096423866  0.9485937846085184  0.17323237619383325  1.0000
  O   O3        1.0  0.788173404244203  0.35457129466592585  0.2070264721822177  1.0000
  O   O4        1.0  0.7554763019747224  0.4815395920423242  0.6387262424674915  1.0000
  O   O5        1.0  0.09091457137387415  0.4937954483133602  0.6611462192880104  1.0000
  O   O6        1.0  0.7202924481709125  0.21354277159357782  0.21403216353186938  1.0000
  O   O7        1.0  0.47730200766297814  0.34037272194903423  0.8151676776747401  1.0000
  O   O8        1.0  0.16067781859188024  0.5767681229493178  0.6344383721263771  1.0000
