data_image0
_chemical_formula_structural       Zr4O8
_chemical_formula_sum              "Zr4 O8"
_cell_length_a       5.1539878367877705
_cell_length_b       5.22810872
_cell_length_c       5.329696159145639
_cell_angle_alpha    90.0
_cell_angle_beta     99.43692258379697
_cell_angle_gamma    90.0

_space_group_name_H-M_alt    "P 1"
_space_group_IT_number       1

loop_
  _space_group_symop_operation_xyz
  'x, y, z'

loop_
  _atom_site_type_symbol
  _atom_site_label
  _atom_site_symmetry_multiplicity
  _atom_site_fract_x
  _atom_site_fract_y
  _atom_site_fract_z
  _atom_site_occupancy
  Zr  Zr1       1.0  0.05637546556264539  0.5486811498764723  0.05973323702825417  1.0000
  Zr  Zr2       1.0  0.9954330491539967  0.20036394874114372  0.06097926795726405  1.0000
  Zr  Zr3       1.0  0.8283179097034798  0.9439247137004418  0.45027750494220875  1.0000
  Zr  Zr4       1.0  0.8860299636941278  0.25740884738811953  0.5388193774561909  1.0000
  O   O1        1.0  0.025949328480631806  0.810870924082389  0.13629488881582574  1.0000
  O   O2        1.0  0.685216947841992  0.07102807880478679  0.8493124404880783  1.0000
  O   O3        1.0  0.5665688585905926  0.4444158827428524  0.9762816550355256  1.0000
  O   O4        1.0  0.2264523865272885  0.04190838512916173  0.675149164365255  1.0000
  O   O5        1.0  0.6295784806327518  0.6154201823624916  0.9697519871068838  1.0000
  O   O6        1.0  0.6441700910792321  0.9406270826381835  0.16404656124604067  1.0000
  O   O7        1.0  0.770889071669675  0.7518993950958741  0.8799127470922805  1.0000
  O   O8        1.0  0.45824325796414356  0.693495646530387  0.48750222310239266  1.0000
