data_image0
_chemical_formula_structural       Zr4O8
_chemical_formula_sum              "Zr4 O8"
_cell_length_a       5.1539878367877705
_cell_length_b       5.22810872
_cell_length_c       5.329696159145639
_cell_angle_alpha    90.0
_cell_angle_beta     99.43692258379697
_cell_angle_gamma    90.0

_space_group_name_H-M_alt    "P 1"
_space_group_IT_number       1

loop_
  _space_group_symop_operation_xyz
  'x, y, z'

loop_
  _atom_site_type_symbol
  _atom_site_label
  _atom_site_symmetry_multiplicity
  _atom_site_fract_x
  _atom_site_fract_y
  _atom_site_fract_z
  _atom_site_occupancy
  Zr  Zr1       1.0  0.19534116366510013  0.9155055060940303  0.7046355330013636  1.0000
  Zr  Zr2       1.0  0.1282249213365798  0.4903783248655067  0.17287220074431175  1.0000
  Zr  Zr3       1.0  0.11056327540581101  0.9711823453773873  0.6828061311110338  1.0000
  Zr  Zr4       1.0  0.87335230432255  0.9041134323288968  0.08459429962956357  1.0000
  O   O1        1.0  0.09182395086824968  0.03319935779298433  0.37871851401678924  1.0000
  O   O2        1.0  0.6460372804682031  0.8647539784008433  0.9335087529680735  1.0000
  O   O3        1.0  0.7470318650423384  0.205167051012632  0.668150641195302  1.0000
  O   O4        1.0  0.7125629973051524  0.19574618133876132  0.4832342712068787  1.0000
  O   O5        1.0  0.6762353379550596  0.5298667096852725  0.6866539951294754  1.0000
  O   O6        1.0  0.5113979438938578  0.1996648505494747  0.8898552201210881  1.0000
  O   O7        1.0  0.9084373107575892  0.28399096127014545  0.6960368871233484  1.0000
  O   O8        1.0  0.04323773767486472  0.7654675707325396  0.26773201625570664  1.0000
