data_image0
_chemical_formula_structural       Zr4O8
_chemical_formula_sum              "Zr4 O8"
_cell_length_a       5.1539878367877705
_cell_length_b       5.22810872
_cell_length_c       5.329696159145639
_cell_angle_alpha    90.0
_cell_angle_beta     99.43692258379697
_cell_angle_gamma    90.0

_space_group_name_H-M_alt    "P 1"
_space_group_IT_number       1

loop_
  _space_group_symop_operation_xyz
  'x, y, z'

loop_
  _atom_site_type_symbol
  _atom_site_label
  _atom_site_symmetry_multiplicity
  _atom_site_fract_x
  _atom_site_fract_y
  _atom_site_fract_z
  _atom_site_occupancy
  Zr  Zr1       1.0  0.4069170751300355  0.30274283952935477  0.7948810270277704  1.0000
  Zr  Zr2       1.0  0.003311922327748462  0.05155310553793013  0.730622078987281  1.0000
  Zr  Zr3       1.0  0.7727129648209305  0.21733698792086642  0.07064120627795911  1.0000
  Zr  Zr4       1.0  0.39216943574592  0.624701383674898  0.25703389258320186  1.0000
  O   O1        1.0  0.9769342454548617  0.7530756930051083  0.2593740716105106  1.0000
  O   O2        1.0  0.7383539306087528  0.44734379155089243  0.4545195477102908  1.0000
  O   O3        1.0  0.018415385030490228  0.30437874245459184  0.769105188380637  1.0000
  O   O4        1.0  0.7714515140557978  0.6557516269950554  0.4463871685667833  1.0000
  O   O5        1.0  0.19003964744630153  0.9200739471443882  0.0868235274696616  1.0000
  O   O6        1.0  0.4377051991493204  0.6170812772602474  0.07369819432685087  1.0000
  O   O7        1.0  0.40546029177180287  0.9474567275324866  0.8685081310261324  1.0000
  O   O8        1.0  0.6803441796701577  0.5746293301640106  0.8343468538856555  1.0000
