data_image0
_chemical_formula_structural       Zr4O8
_chemical_formula_sum              "Zr4 O8"
_cell_length_a       5.1539878367877705
_cell_length_b       5.22810872
_cell_length_c       5.329696159145639
_cell_angle_alpha    90.0
_cell_angle_beta     99.43692258379697
_cell_angle_gamma    90.0

_space_group_name_H-M_alt    "P 1"
_space_group_IT_number       1

loop_
  _space_group_symop_operation_xyz
  'x, y, z'

loop_
  _atom_site_type_symbol
  _atom_site_label
  _atom_site_symmetry_multiplicity
  _atom_site_fract_x
  _atom_site_fract_y
  _atom_site_fract_z
  _atom_site_occupancy
  Zr  Zr1       1.0  0.4528672200766408  0.3851364801851762  0.6904809697162797  1.0000
  Zr  Zr2       1.0  0.5172739749830946  0.20281855562944173  0.9684463336349438  1.0000
  Zr  Zr3       1.0  0.0656506442027247  0.07617598908043477  0.8133617298550888  1.0000
  Zr  Zr4       1.0  0.072141656589369  0.3841629947429688  0.8629361329632399  1.0000
  O   O1        1.0  0.6176930286765554  0.1506057561151426  0.881138694578965  1.0000
  O   O2        1.0  0.5076782742406998  0.46573426492038195  0.39896588871884386  1.0000
  O   O3        1.0  0.7381996501765833  0.08357368245191665  0.17826089713246596  1.0000
  O   O4        1.0  0.3853303325837629  0.2840986158901506  0.5374391859141849  1.0000
  O   O5        1.0  0.7689142515628618  0.8383131215022743  0.3530180464038253  1.0000
  O   O6        1.0  0.07658316333468917  0.03664173569018203  0.42739335508428056  1.0000
  O   O7        1.0  0.9071022765596695  0.559886649485378  0.8326064275412364  1.0000
  O   O8        1.0  0.6959603059945421  0.5099656193140873  0.25566043635594227  1.0000
