data_image0
_chemical_formula_structural       Zr4O8
_chemical_formula_sum              "Zr4 O8"
_cell_length_a       5.1539878367877705
_cell_length_b       5.22810872
_cell_length_c       5.329696159145639
_cell_angle_alpha    90.0
_cell_angle_beta     99.43692258379697
_cell_angle_gamma    90.0

_space_group_name_H-M_alt    "P 1"
_space_group_IT_number       1

loop_
  _space_group_symop_operation_xyz
  'x, y, z'

loop_
  _atom_site_type_symbol
  _atom_site_label
  _atom_site_symmetry_multiplicity
  _atom_site_fract_x
  _atom_site_fract_y
  _atom_site_fract_z
  _atom_site_occupancy
  Zr  Zr1       1.0  0.537266471713437  0.9246087344229181  0.17842935394924897  1.0000
  Zr  Zr2       1.0  0.107968414262686  0.5561915902249126  0.6046536331248529  1.0000
  Zr  Zr3       1.0  0.5975734616192803  0.7744238354833424  0.9320786835189043  1.0000
  Zr  Zr4       1.0  0.45902616088928583  0.3969367323473394  0.5837008018650751  1.0000
  O   O1        1.0  0.7160568910270797  0.582703407391044  0.3468285012184076  1.0000
  O   O2        1.0  0.36980079771797847  0.23762384801601666  0.6306555209719242  1.0000
  O   O3        1.0  0.24011535394610206  0.33038854959316755  0.1830684378819214  1.0000
  O   O4        1.0  0.6040082212126414  0.8197214714588767  0.4935409508669073  1.0000
  O   O5        1.0  0.5878391001990293  0.9641857341161924  0.7308272410851018  1.0000
  O   O6        1.0  0.4666714288936191  0.6761054583755168  0.011437846209879865  1.0000
  O   O7        1.0  0.5621738585396425  0.9861697557386562  0.38626219016691365  1.0000
  O   O8        1.0  0.1551621515667314  0.39575726121874055  0.030077931852426687  1.0000
