data_image0
_chemical_formula_structural       Zr4O8
_chemical_formula_sum              "Zr4 O8"
_cell_length_a       5.1539878367877705
_cell_length_b       5.22810872
_cell_length_c       5.329696159145639
_cell_angle_alpha    90.0
_cell_angle_beta     99.43692258379697
_cell_angle_gamma    90.0

_space_group_name_H-M_alt    "P 1"
_space_group_IT_number       1

loop_
  _space_group_symop_operation_xyz
  'x, y, z'

loop_
  _atom_site_type_symbol
  _atom_site_label
  _atom_site_symmetry_multiplicity
  _atom_site_fract_x
  _atom_site_fract_y
  _atom_site_fract_z
  _atom_site_occupancy
  Zr  Zr1       1.0  0.7067791581601943  0.14395131100327774  0.9314757436894816  1.0000
  Zr  Zr2       1.0  0.013481515128031418  0.37593799795067895  0.7314458816047402  1.0000
  Zr  Zr3       1.0  0.1818524668841146  0.5089884063753356  0.979538198054458  1.0000
  Zr  Zr4       1.0  0.7629007003477777  0.8003505971517555  0.11682231520009179  1.0000
  O   O1        1.0  0.03992859803929605  0.7319416778619399  0.26681884823380386  1.0000
  O   O2        1.0  0.8303522179138394  0.5447067085815256  0.6438716820934296  1.0000
  O   O3        1.0  0.4528645708234875  0.6917881723655386  0.42008821513715766  1.0000
  O   O4        1.0  0.8739895456610292  0.05033607609618862  0.11949676558677069  1.0000
  O   O5        1.0  0.23252811313503763  0.028283502787097348  0.11540937008116003  1.0000
  O   O6        1.0  0.6155972290362719  0.5577567156873187  0.8648362462845303  1.0000
  O   O7        1.0  0.9257779561048816  0.11090794900548318  0.47863089134338566  1.0000
  O   O8        1.0  0.7136952903261999  0.9335234441648765  0.41385040047946564  1.0000
