data_image0
_chemical_formula_structural       Zr4O8
_chemical_formula_sum              "Zr4 O8"
_cell_length_a       5.1539878367877705
_cell_length_b       5.22810872
_cell_length_c       5.329696159145639
_cell_angle_alpha    90.0
_cell_angle_beta     99.43692258379697
_cell_angle_gamma    90.0

_space_group_name_H-M_alt    "P 1"
_space_group_IT_number       1

loop_
  _space_group_symop_operation_xyz
  'x, y, z'

loop_
  _atom_site_type_symbol
  _atom_site_label
  _atom_site_symmetry_multiplicity
  _atom_site_fract_x
  _atom_site_fract_y
  _atom_site_fract_z
  _atom_site_occupancy
  Zr  Zr1       1.0  0.4026204506551281  0.6828815593326389  0.29704230527084263  1.0000
  Zr  Zr2       1.0  0.3053364888832153  0.030846831164316857  0.15976195188821762  1.0000
  Zr  Zr3       1.0  0.004838980718562702  0.19546887568606053  0.37834881682695753  1.0000
  Zr  Zr4       1.0  0.15673978801451097  0.6132492379519414  0.5276251872627284  1.0000
  O   O1        1.0  0.45837583739628407  0.8481535183999043  0.5911079632619103  1.0000
  O   O2        1.0  0.31138961871758397  0.07125546218523482  0.40388149070450297  1.0000
  O   O3        1.0  0.17453045245824228  0.4093117751297264  0.2647266476596233  1.0000
  O   O4        1.0  0.36719198896545535  0.26390001934519347  0.4091591860535644  1.0000
  O   O5        1.0  0.3143880758358648  0.6437210657956882  0.9098716706967078  1.0000
  O   O6        1.0  0.4049323014465074  0.60848659359484  0.37896553825018353  1.0000
  O   O7        1.0  0.09054851369133843  0.07340996041379633  0.393521932055112  1.0000
  O   O8        1.0  0.9983482712972762  0.7813165186423245  0.4687846294291198  1.0000
