data_image0
_chemical_formula_structural       Zr4O8
_chemical_formula_sum              "Zr4 O8"
_cell_length_a       5.1539878367877705
_cell_length_b       5.22810872
_cell_length_c       5.329696159145639
_cell_angle_alpha    90.0
_cell_angle_beta     99.43692258379697
_cell_angle_gamma    90.0

_space_group_name_H-M_alt    "P 1"
_space_group_IT_number       1

loop_
  _space_group_symop_operation_xyz
  'x, y, z'

loop_
  _atom_site_type_symbol
  _atom_site_label
  _atom_site_symmetry_multiplicity
  _atom_site_fract_x
  _atom_site_fract_y
  _atom_site_fract_z
  _atom_site_occupancy
  Zr  Zr1       1.0  0.3325166051604178  0.7790040471413135  0.3148169938320162  1.0000
  Zr  Zr2       1.0  0.20758667841510992  0.8920934031630765  0.9565411852656096  1.0000
  Zr  Zr3       1.0  0.8478498381517268  0.1731599665681962  0.5956456552951843  1.0000
  Zr  Zr4       1.0  0.04749878330827251  0.707517408094851  0.37362496677253176  1.0000
  O   O1        1.0  0.07757574572448167  0.8453805659915119  0.9251680477867446  1.0000
  O   O2        1.0  0.2693147432116376  0.4414176674331287  0.6539513181150838  1.0000
  O   O3        1.0  0.262313822260797  0.7147542247700507  0.5982134069942866  1.0000
  O   O4        1.0  0.25358411346631193  0.5330855867686921  0.9534066602375972  1.0000
  O   O5        1.0  0.5266652439287398  0.2511358506997894  0.6646187091856781  1.0000
  O   O6        1.0  0.9741307173779958  0.004216262321499187  0.42896402316951665  1.0000
  O   O7        1.0  0.5728273054074009  0.2530999746146829  0.6499162862229362  1.0000
  O   O8        1.0  0.3634592893199198  0.43252774398980964  0.18642561677623348  1.0000
