data_image0
_chemical_formula_structural       Zr4O8
_chemical_formula_sum              "Zr4 O8"
_cell_length_a       5.1539878367877705
_cell_length_b       5.22810872
_cell_length_c       5.329696159145639
_cell_angle_alpha    90.0
_cell_angle_beta     99.43692258379697
_cell_angle_gamma    90.0

_space_group_name_H-M_alt    "P 1"
_space_group_IT_number       1

loop_
  _space_group_symop_operation_xyz
  'x, y, z'

loop_
  _atom_site_type_symbol
  _atom_site_label
  _atom_site_symmetry_multiplicity
  _atom_site_fract_x
  _atom_site_fract_y
  _atom_site_fract_z
  _atom_site_occupancy
  Zr  Zr1       1.0  0.7620900745263235  0.781800039822599  0.6049321785700228  1.0000
  Zr  Zr2       1.0  0.15312907963921418  0.6662677230132488  0.551187305108936  1.0000
  Zr  Zr3       1.0  0.8727420889254134  0.6700810321481874  0.9643338003213735  1.0000
  Zr  Zr4       1.0  0.9247361274015129  0.402238716045078  0.6848482485017637  1.0000
  O   O1        1.0  0.44170222035768525  0.8856697790615087  0.9243984693220897  1.0000
  O   O2        1.0  0.06255654571688041  0.9379321488924912  0.36859769320933644  1.0000
  O   O3        1.0  0.21936380725838234  0.5340435265358994  0.9359659458456555  1.0000
  O   O4        1.0  0.2848704543677023  0.388937232911168  0.19592324200452715  1.0000
  O   O5        1.0  0.30155530299671796  0.5769343549796471  0.33044983664067473  1.0000
  O   O6        1.0  0.035318209335965633  0.04803865230515125  0.7096891642610093  1.0000
  O   O7        1.0  0.6818553571109482  0.7544872420955278  0.15839285552195648  1.0000
  O   O8        1.0  0.025211553222600713  0.677313756185292  0.7948179723329849  1.0000
