data_image0
_chemical_formula_structural       Zr4O8
_chemical_formula_sum              "Zr4 O8"
_cell_length_a       5.1539878367877705
_cell_length_b       5.22810872
_cell_length_c       5.329696159145639
_cell_angle_alpha    90.0
_cell_angle_beta     99.43692258379697
_cell_angle_gamma    90.0

_space_group_name_H-M_alt    "P 1"
_space_group_IT_number       1

loop_
  _space_group_symop_operation_xyz
  'x, y, z'

loop_
  _atom_site_type_symbol
  _atom_site_label
  _atom_site_symmetry_multiplicity
  _atom_site_fract_x
  _atom_site_fract_y
  _atom_site_fract_z
  _atom_site_occupancy
  Zr  Zr1       1.0  0.6610973135463531  0.282265774516512  0.23134386712970922  1.0000
  Zr  Zr2       1.0  0.9390496888074455  0.17173187866794493  0.4244439229178161  1.0000
  Zr  Zr3       1.0  0.45670669883343074  0.9268569285272612  0.22052204825648047  1.0000
  Zr  Zr4       1.0  0.11544415648470485  0.311415160546888  0.428356517734807  1.0000
  O   O1        1.0  0.3090188273018377  0.6542876148246499  0.40730485698851737  1.0000
  O   O2        1.0  0.17867735178109712  0.3924462206595649  0.9165404609265728  1.0000
  O   O3        1.0  0.4646219457832501  0.9028438395482112  0.5956792656506202  1.0000
  O   O4        1.0  0.5098212163561815  0.8756045732153019  0.19229606536432442  1.0000
  O   O5        1.0  0.7617599256361007  0.9041390819824429  0.7695872578889578  1.0000
  O   O6        1.0  0.43620277481766934  0.7289972567463039  0.1197747169055674  1.0000
  O   O7        1.0  0.4471164772383638  0.8663035725799979  0.42893367640152036  1.0000
  O   O8        1.0  0.857612209913543  0.7072295023404038  0.18137144335235433  1.0000
