data_image0
_chemical_formula_structural       Zr4O8
_chemical_formula_sum              "Zr4 O8"
_cell_length_a       5.1539878367877705
_cell_length_b       5.22810872
_cell_length_c       5.329696159145639
_cell_angle_alpha    90.0
_cell_angle_beta     99.43692258379697
_cell_angle_gamma    90.0

_space_group_name_H-M_alt    "P 1"
_space_group_IT_number       1

loop_
  _space_group_symop_operation_xyz
  'x, y, z'

loop_
  _atom_site_type_symbol
  _atom_site_label
  _atom_site_symmetry_multiplicity
  _atom_site_fract_x
  _atom_site_fract_y
  _atom_site_fract_z
  _atom_site_occupancy
  Zr  Zr1       1.0  0.5873936057169822  0.4984270843238665  0.7915519915974052  1.0000
  Zr  Zr2       1.0  0.3471049057438602  0.2811951706147564  0.9320993295275484  1.0000
  Zr  Zr3       1.0  0.11996566257068153  0.8780719470420817  0.013156421749885183  1.0000
  Zr  Zr4       1.0  0.750597898325287  0.6325162790686214  0.6215793477633724  1.0000
  O   O1        1.0  0.11234946182992189  0.2550732504565829  0.4334498061973626  1.0000
  O   O2        1.0  0.034028581247316225  0.5810762484724492  0.6287156975630535  1.0000
  O   O3        1.0  0.15621205949448314  0.13311894465456575  0.969944361882856  1.0000
  O   O4        1.0  0.15278680880133422  0.8306679259978553  0.30110567714609315  1.0000
  O   O5        1.0  0.7914845881837351  0.5448029639700351  0.4388164820043201  1.0000
  O   O6        1.0  0.8899167832355701  0.3875842902007065  0.2450203498625001  1.0000
  O   O7        1.0  0.9955819726652173  0.9193410835095719  0.7285660301719901  1.0000
  O   O8        1.0  0.3701815676051945  0.1569345987212376  0.1756395877096768  1.0000
