data_image0
_chemical_formula_structural       Zr4O8
_chemical_formula_sum              "Zr4 O8"
_cell_length_a       5.1539878367877705
_cell_length_b       5.22810872
_cell_length_c       5.329696159145639
_cell_angle_alpha    90.0
_cell_angle_beta     99.43692258379697
_cell_angle_gamma    90.0

_space_group_name_H-M_alt    "P 1"
_space_group_IT_number       1

loop_
  _space_group_symop_operation_xyz
  'x, y, z'

loop_
  _atom_site_type_symbol
  _atom_site_label
  _atom_site_symmetry_multiplicity
  _atom_site_fract_x
  _atom_site_fract_y
  _atom_site_fract_z
  _atom_site_occupancy
  Zr  Zr1       1.0  0.3447104599933084  0.6849948557812993  0.06974062853236873  1.0000
  Zr  Zr2       1.0  0.6018681131151546  0.3048655167834191  0.8735869742744062  1.0000
  Zr  Zr3       1.0  0.1343036516019187  0.7968217195438405  0.24651169019577127  1.0000
  Zr  Zr4       1.0  0.5073858528777997  0.18985097192617129  0.38985416329086253  1.0000
  O   O1        1.0  0.7050549799354329  0.4011323652633294  0.789312575187413  1.0000
  O   O2        1.0  0.18864414026184928  0.09244346980609697  0.7604846234836697  1.0000
  O   O3        1.0  0.5066385375819831  0.5298868162875596  0.1315267462963412  1.0000
  O   O4        1.0  0.2221727342188714  0.9028740525803762  0.9094696247840002  1.0000
  O   O5        1.0  0.20978227075803613  0.04215578589110436  0.00713344668234539  1.0000
  O   O6        1.0  0.21602152234724414  0.8392925374418428  0.15859356133785774  1.0000
  O   O7        1.0  0.900714746085221  0.4509648682048621  0.43643806087058223  1.0000
  O   O8        1.0  0.9437722357901421  0.6667192990143977  0.7611053604540023  1.0000
