data_image0
_chemical_formula_structural       Zr4O8
_chemical_formula_sum              "Zr4 O8"
_cell_length_a       5.1539878367877705
_cell_length_b       5.22810872
_cell_length_c       5.329696159145639
_cell_angle_alpha    90.0
_cell_angle_beta     99.43692258379697
_cell_angle_gamma    90.0

_space_group_name_H-M_alt    "P 1"
_space_group_IT_number       1

loop_
  _space_group_symop_operation_xyz
  'x, y, z'

loop_
  _atom_site_type_symbol
  _atom_site_label
  _atom_site_symmetry_multiplicity
  _atom_site_fract_x
  _atom_site_fract_y
  _atom_site_fract_z
  _atom_site_occupancy
  Zr  Zr1       1.0  0.015807146466127797  0.03341376775688332  0.9321896307914699  1.0000
  Zr  Zr2       1.0  0.06750974048356895  0.903253906616504  0.12842434053306828  1.0000
  Zr  Zr3       1.0  0.7538927968573708  0.018056532295008587  0.11205813669609199  1.0000
  Zr  Zr4       1.0  0.48939441315071086  0.12727143381890293  0.6044065645315477  1.0000
  O   O1        1.0  0.6376999339553819  0.19707075575419353  0.23318320223874167  1.0000
  O   O2        1.0  0.49594840983827027  0.15260890199377997  0.8775966413861909  1.0000
  O   O3        1.0  0.14958149075980742  0.25809936142660206  0.7377520367502761  1.0000
  O   O4        1.0  0.3510292933958876  0.08919470294634158  0.27542969209564205  1.0000
  O   O5        1.0  0.5906771095200867  0.3662083965177878  0.6745319439870519  1.0000
  O   O6        1.0  0.9552348018074319  0.2769286009889669  0.7778273325879965  1.0000
  O   O7        1.0  0.8347260475930227  0.5991191609538369  0.8487222346556091  1.0000
  O   O8        1.0  0.10560340424188652  0.3784547905036888  0.8402710601587344  1.0000
