data_image0
_chemical_formula_structural       Zr4O8
_chemical_formula_sum              "Zr4 O8"
_cell_length_a       5.1539878367877705
_cell_length_b       5.22810872
_cell_length_c       5.329696159145639
_cell_angle_alpha    90.0
_cell_angle_beta     99.43692258379697
_cell_angle_gamma    90.0

_space_group_name_H-M_alt    "P 1"
_space_group_IT_number       1

loop_
  _space_group_symop_operation_xyz
  'x, y, z'

loop_
  _atom_site_type_symbol
  _atom_site_label
  _atom_site_symmetry_multiplicity
  _atom_site_fract_x
  _atom_site_fract_y
  _atom_site_fract_z
  _atom_site_occupancy
  Zr  Zr1       1.0  0.7757476872259739  0.6058313084778311  0.23261649278034557  1.0000
  Zr  Zr2       1.0  0.4032931769920651  0.18027997306069565  0.5637266403290728  1.0000
  Zr  Zr3       1.0  0.22136363939287396  0.4707321897315033  0.7492347641011428  1.0000
  Zr  Zr4       1.0  0.5118583665532297  0.45364635717323054  0.013394263822147146  1.0000
  O   O1        1.0  0.19711030479236857  0.11587739590062718  0.46090376670892397  1.0000
  O   O2        1.0  0.4288749443596964  0.3881967003755662  0.20729458276438528  1.0000
  O   O3        1.0  0.03798187427981503  0.65938665029622  0.20071077044050334  1.0000
  O   O4        1.0  0.6782862883236938  0.9825338497776421  0.8758102100863105  1.0000
  O   O5        1.0  0.16127092657272613  0.36435849558417743  0.8839994643177942  1.0000
  O   O6        1.0  0.27638465664658174  0.8033817688258651  0.6327815392694021  1.0000
  O   O7        1.0  0.2841443838572344  0.8878103498540746  0.6841459238828165  1.0000
  O   O8        1.0  0.7140411543797813  0.4261920790727274  0.04164877118020627  1.0000
