data_image0
_chemical_formula_structural       Zr4O8
_chemical_formula_sum              "Zr4 O8"
_cell_length_a       5.1539878367877705
_cell_length_b       5.22810872
_cell_length_c       5.329696159145639
_cell_angle_alpha    90.0
_cell_angle_beta     99.43692258379697
_cell_angle_gamma    90.0

_space_group_name_H-M_alt    "P 1"
_space_group_IT_number       1

loop_
  _space_group_symop_operation_xyz
  'x, y, z'

loop_
  _atom_site_type_symbol
  _atom_site_label
  _atom_site_symmetry_multiplicity
  _atom_site_fract_x
  _atom_site_fract_y
  _atom_site_fract_z
  _atom_site_occupancy
  Zr  Zr1       1.0  0.38040212875430157  0.9811242475471493  0.13022793500683782  1.0000
  Zr  Zr2       1.0  0.9612164513436632  0.2519179542606924  0.4632780902240894  1.0000
  Zr  Zr3       1.0  0.4828142279383165  0.23859420900537476  0.6841558411327155  1.0000
  Zr  Zr4       1.0  0.8104347091594503  0.43360912868593715  0.1847668317058151  1.0000
  O   O1        1.0  0.6937685856877351  0.8426455610535681  0.13215370763610146  1.0000
  O   O2        1.0  0.4446006085368097  0.15321504428410387  0.18877455305838353  1.0000
  O   O3        1.0  0.24430126491158788  0.1888147120045962  0.7386379429453562  1.0000
  O   O4        1.0  0.09690188747395057  0.1924981977338689  0.9921473488269363  1.0000
  O   O5        1.0  0.5307845523154331  0.832421015035897  0.4736329812000726  1.0000
  O   O6        1.0  0.6773756592233724  0.2328940165542832  0.9603827874968651  1.0000
  O   O7        1.0  0.18736301758130702  0.2916400585689458  0.755577605989842  1.0000
  O   O8        1.0  0.06633605638732121  0.3485344203534275  0.5860654689399248  1.0000
