data_image0
_chemical_formula_structural       Zr4O8
_chemical_formula_sum              "Zr4 O8"
_cell_length_a       5.1539878367877705
_cell_length_b       5.22810872
_cell_length_c       5.329696159145639
_cell_angle_alpha    90.0
_cell_angle_beta     99.43692258379697
_cell_angle_gamma    90.0

_space_group_name_H-M_alt    "P 1"
_space_group_IT_number       1

loop_
  _space_group_symop_operation_xyz
  'x, y, z'

loop_
  _atom_site_type_symbol
  _atom_site_label
  _atom_site_symmetry_multiplicity
  _atom_site_fract_x
  _atom_site_fract_y
  _atom_site_fract_z
  _atom_site_occupancy
  Zr  Zr1       1.0  0.8175375782999472  0.29512174551176074  0.3093327220972597  1.0000
  Zr  Zr2       1.0  0.9560800190914378  0.04092235661845933  0.6073229456758229  1.0000
  Zr  Zr3       1.0  0.4898710756555298  0.6323674694132482  0.08920377875365659  1.0000
  Zr  Zr4       1.0  0.6886863997907136  0.5557869992994338  0.005640079127420705  1.0000
  O   O1        1.0  0.4651414682999686  0.7378917248402743  0.39916379770656185  1.0000
  O   O2        1.0  0.35867556193349515  0.6309558988383088  0.432604349296426  1.0000
  O   O3        1.0  0.1914921431388663  0.17062902612416053  0.7898172790771483  1.0000
  O   O4        1.0  0.21002587359109492  0.7057523932155396  0.5603104429328667  1.0000
  O   O5        1.0  0.5429421581931066  0.0670420183872622  0.8942631104717744  1.0000
  O   O6        1.0  0.0687228499176129  0.29096723697688276  0.03434312612470691  1.0000
  O   O7        1.0  0.15809076941779665  0.2049598025547983  0.8354500538113179  1.0000
  O   O8        1.0  0.7388061178388341  0.29166754370895376  0.9170437547493577  1.0000
