data_image0
_chemical_formula_structural       Zr4O8
_chemical_formula_sum              "Zr4 O8"
_cell_length_a       5.1539878367877705
_cell_length_b       5.22810872
_cell_length_c       5.329696159145639
_cell_angle_alpha    90.0
_cell_angle_beta     99.43692258379697
_cell_angle_gamma    90.0

_space_group_name_H-M_alt    "P 1"
_space_group_IT_number       1

loop_
  _space_group_symop_operation_xyz
  'x, y, z'

loop_
  _atom_site_type_symbol
  _atom_site_label
  _atom_site_symmetry_multiplicity
  _atom_site_fract_x
  _atom_site_fract_y
  _atom_site_fract_z
  _atom_site_occupancy
  Zr  Zr1       1.0  0.18457419798897856  0.11207837376347074  0.6057437314876282  1.0000
  Zr  Zr2       1.0  0.42983984214173976  0.5291114451945766  0.5269129530464642  1.0000
  Zr  Zr3       1.0  0.960812702636431  0.46105704666824643  0.2396169891279607  1.0000
  Zr  Zr4       1.0  0.4337938607418279  0.6431822055125389  0.38985462652201974  1.0000
  O   O1        1.0  0.6823666450287504  0.7150795518683246  0.10191947162462256  1.0000
  O   O2        1.0  0.27316438075795224  0.46019866021513245  0.24869714174615165  1.0000
  O   O3        1.0  0.8068721229930915  0.9198018436187922  0.30016009026882395  1.0000
  O   O4        1.0  0.9892888834502269  0.7589170670251164  0.4678371463217008  1.0000
  O   O5        1.0  0.39597595554104714  0.8784291500604553  0.20168578557640449  1.0000
  O   O6        1.0  0.053696040845252035  0.34577968346452703  0.8490882655961691  1.0000
  O   O7        1.0  0.682298683477887  0.7855453594823345  0.3451336924111672  1.0000
  O   O8        1.0  0.9158228400342581  0.6231388755797025  0.25687786924387  1.0000
