data_image0
_chemical_formula_structural       Zr4O8
_chemical_formula_sum              "Zr4 O8"
_cell_length_a       5.1539878367877705
_cell_length_b       5.22810872
_cell_length_c       5.329696159145639
_cell_angle_alpha    90.0
_cell_angle_beta     99.43692258379697
_cell_angle_gamma    90.0

_space_group_name_H-M_alt    "P 1"
_space_group_IT_number       1

loop_
  _space_group_symop_operation_xyz
  'x, y, z'

loop_
  _atom_site_type_symbol
  _atom_site_label
  _atom_site_symmetry_multiplicity
  _atom_site_fract_x
  _atom_site_fract_y
  _atom_site_fract_z
  _atom_site_occupancy
  Zr  Zr1       1.0  0.8126840196972998  0.5467299620578441  0.9840739950993065  1.0000
  Zr  Zr2       1.0  0.12613836090918973  0.6363903671992865  0.08774595872559843  1.0000
  Zr  Zr3       1.0  0.9275259566013094  0.6126760316673442  0.2233274827873255  1.0000
  Zr  Zr4       1.0  0.7355325330324014  0.43361564826699706  0.9795373523928816  1.0000
  O   O1        1.0  0.9231559560567604  0.8883748953878516  0.04344466289378346  1.0000
  O   O2        1.0  0.5642125130497776  0.07194990427636938  0.7529998428810423  1.0000
  O   O3        1.0  0.5368524949642888  0.9007829400161675  0.5284204869263833  1.0000
  O   O4        1.0  0.01949947245034167  0.9483861603054455  0.8661319791784958  1.0000
  O   O5        1.0  0.6835534570160686  0.1978442778280325  0.7587165150517521  1.0000
  O   O6        1.0  0.09208035405836767  0.5407575829861884  0.0829910528016331  1.0000
  O   O7        1.0  0.038584357512219114  0.35743870739716854  0.7992864583662396  1.0000
  O   O8        1.0  0.7292623309877797  0.3137679032845426  0.13197319035938548  1.0000
