data_image0
_chemical_formula_structural       Zr4O8
_chemical_formula_sum              "Zr4 O8"
_cell_length_a       5.1539878367877705
_cell_length_b       5.22810872
_cell_length_c       5.329696159145639
_cell_angle_alpha    90.0
_cell_angle_beta     99.43692258379697
_cell_angle_gamma    90.0

_space_group_name_H-M_alt    "P 1"
_space_group_IT_number       1

loop_
  _space_group_symop_operation_xyz
  'x, y, z'

loop_
  _atom_site_type_symbol
  _atom_site_label
  _atom_site_symmetry_multiplicity
  _atom_site_fract_x
  _atom_site_fract_y
  _atom_site_fract_z
  _atom_site_occupancy
  Zr  Zr1       1.0  0.8500973148491866  0.8509948333089952  0.3780938914222496  1.0000
  Zr  Zr2       1.0  0.7370083156960687  0.4937345464887788  0.09702925144311347  1.0000
  Zr  Zr3       1.0  0.8019468665666307  0.9297416042907436  0.06979791504557298  1.0000
  Zr  Zr4       1.0  0.8275390822728568  0.4418412542649648  0.6573441519188776  1.0000
  O   O1        1.0  0.9186593947043633  0.04944086097507494  0.39603268348618137  1.0000
  O   O2        1.0  0.005314218753582622  0.010974320634915102  0.5977856533872696  1.0000
  O   O3        1.0  0.4579825086828535  0.5510067612162288  0.4455279216754313  1.0000
  O   O4        1.0  0.530416488894474  0.048182751195504636  0.22323469700528875  1.0000
  O   O5        1.0  0.874600140198968  0.33079847047683586  0.014804770507886644  1.0000
  O   O6        1.0  0.9926725175268913  0.341688019957644  0.09253692024144816  1.0000
  O   O7        1.0  0.17297336581269995  0.12912193174815467  0.9228922699265638  1.0000
  O   O8        1.0  0.035842500600353655  0.5361007474109326  0.6069216755958706  1.0000
