data_image0
_chemical_formula_structural       Zr4O8
_chemical_formula_sum              "Zr4 O8"
_cell_length_a       5.1539878367877705
_cell_length_b       5.22810872
_cell_length_c       5.329696159145639
_cell_angle_alpha    90.0
_cell_angle_beta     99.43692258379697
_cell_angle_gamma    90.0

_space_group_name_H-M_alt    "P 1"
_space_group_IT_number       1

loop_
  _space_group_symop_operation_xyz
  'x, y, z'

loop_
  _atom_site_type_symbol
  _atom_site_label
  _atom_site_symmetry_multiplicity
  _atom_site_fract_x
  _atom_site_fract_y
  _atom_site_fract_z
  _atom_site_occupancy
  Zr  Zr1       1.0  0.6773108369422367  0.10921376423139106  0.3188898848719246  1.0000
  Zr  Zr2       1.0  0.07419684976965124  0.5990743611780651  0.5245081044366833  1.0000
  Zr  Zr3       1.0  0.8407797665832457  0.3250298527995241  0.0890729658256717  1.0000
  Zr  Zr4       1.0  0.9466346290966898  0.802253616138799  0.24723876470594952  1.0000
  O   O1        1.0  0.6754697196416419  0.34634350915247314  0.7996361751910435  1.0000
  O   O2        1.0  0.6449702268107955  0.8552043590575629  0.6094492442712474  1.0000
  O   O3        1.0  0.5921484332019276  0.3759925492563596  0.7871536037873206  1.0000
  O   O4        1.0  0.171910162006224  0.09613350496591622  0.9953922307912393  1.0000
  O   O5        1.0  0.6837635866799943  0.841987045719037  0.7066091559135725  1.0000
  O   O6        1.0  0.7580188727780499  0.4777260314182268  0.5850391382301448  1.0000
  O   O7        1.0  0.1366947864976913  0.4771846104874893  0.7960875600363906  1.0000
  O   O8        1.0  0.5087104893507988  0.2637061176496118  0.6545440234535782  1.0000
