data_image0
_chemical_formula_structural       Zr4O8
_chemical_formula_sum              "Zr4 O8"
_cell_length_a       5.1539878367877705
_cell_length_b       5.22810872
_cell_length_c       5.329696159145639
_cell_angle_alpha    90.0
_cell_angle_beta     99.43692258379697
_cell_angle_gamma    90.0

_space_group_name_H-M_alt    "P 1"
_space_group_IT_number       1

loop_
  _space_group_symop_operation_xyz
  'x, y, z'

loop_
  _atom_site_type_symbol
  _atom_site_label
  _atom_site_symmetry_multiplicity
  _atom_site_fract_x
  _atom_site_fract_y
  _atom_site_fract_z
  _atom_site_occupancy
  Zr  Zr1       1.0  0.6384569966274576  0.9520401764200699  0.45106256296740455  1.0000
  Zr  Zr2       1.0  0.7374020741613734  0.5205611233314027  0.8773329130323564  1.0000
  Zr  Zr3       1.0  0.23559690324705684  0.4910010485723937  0.03058468378785406  1.0000
  Zr  Zr4       1.0  0.5696781792226515  0.40979803938411763  0.15186848725258262  1.0000
  O   O1        1.0  0.994167013879796  0.6175832422046614  0.501654509507528  1.0000
  O   O2        1.0  0.7100217117850414  0.24624718635469733  0.6703788886633602  1.0000
  O   O3        1.0  0.7545928659006882  0.8792791471484076  0.26812833581142215  1.0000
  O   O4        1.0  0.20638750018431296  0.3497479259496613  0.7144497933387375  1.0000
  O   O5        1.0  0.03598993226647362  0.5998621288009538  0.4202078685028141  1.0000
  O   O6        1.0  0.5863111179470479  0.10756081198049827  0.9669727760084861  1.0000
  O   O7        1.0  0.8260594443738256  0.22883610201657945  0.8328978379867493  1.0000
  O   O8        1.0  0.8511273264438382  0.3815691788906648  0.2656465692923593  1.0000
