data_image0
_chemical_formula_structural       Zr4O8
_chemical_formula_sum              "Zr4 O8"
_cell_length_a       5.1539878367877705
_cell_length_b       5.22810872
_cell_length_c       5.329696159145639
_cell_angle_alpha    90.0
_cell_angle_beta     99.43692258379697
_cell_angle_gamma    90.0

_space_group_name_H-M_alt    "P 1"
_space_group_IT_number       1

loop_
  _space_group_symop_operation_xyz
  'x, y, z'

loop_
  _atom_site_type_symbol
  _atom_site_label
  _atom_site_symmetry_multiplicity
  _atom_site_fract_x
  _atom_site_fract_y
  _atom_site_fract_z
  _atom_site_occupancy
  Zr  Zr1       1.0  0.6451014914559803  0.47164877167228525  0.962253375773714  1.0000
  Zr  Zr2       1.0  0.7855048951897299  0.1500044823219433  0.3333386556633471  1.0000
  Zr  Zr3       1.0  0.24419840129818837  0.5204446278033643  0.6965451425947464  1.0000
  Zr  Zr4       1.0  0.08911244712735544  0.7284538892758299  0.8892025607273754  1.0000
  O   O1        1.0  0.846332120906002  0.18270608078877615  0.552846584936276  1.0000
  O   O2        1.0  0.4720971130936995  0.9450066091405418  0.020890076426628212  1.0000
  O   O3        1.0  0.5585781722316285  0.10179829666137397  0.06293328752255789  1.0000
  O   O4        1.0  0.3559109864666965  0.6988169738472745  0.7343922613643805  1.0000
  O   O5        1.0  0.059808626338673676  0.3743311841398338  0.7200786063528355  1.0000
  O   O6        1.0  0.0908233028206098  0.6332367303582913  0.4012626910901065  1.0000
  O   O7        1.0  0.2737835059964606  0.4208292648502727  0.5517634087542405  1.0000
  O   O8        1.0  0.8789763481941719  0.3761547982315463  0.5667317124241258  1.0000
