data_image0
_chemical_formula_structural       Zr4O8
_chemical_formula_sum              "Zr4 O8"
_cell_length_a       5.1539878367877705
_cell_length_b       5.22810872
_cell_length_c       5.329696159145639
_cell_angle_alpha    90.0
_cell_angle_beta     99.43692258379697
_cell_angle_gamma    90.0

_space_group_name_H-M_alt    "P 1"
_space_group_IT_number       1

loop_
  _space_group_symop_operation_xyz
  'x, y, z'

loop_
  _atom_site_type_symbol
  _atom_site_label
  _atom_site_symmetry_multiplicity
  _atom_site_fract_x
  _atom_site_fract_y
  _atom_site_fract_z
  _atom_site_occupancy
  Zr  Zr1       1.0  0.1786797191563192  0.2795191964972368  0.3783096059211939  1.0000
  Zr  Zr2       1.0  0.19066087178961055  0.7546532691377905  0.1938997060284784  1.0000
  Zr  Zr3       1.0  0.23208531108431352  0.7599222645501249  0.9251997559805432  1.0000
  Zr  Zr4       1.0  0.44671259865883095  0.7962149622440542  0.11902178979858746  1.0000
  O   O1        1.0  0.6423569410460601  0.6397643390648664  0.46285277235181255  1.0000
  O   O2        1.0  0.5729174773442745  0.3183554265773232  0.12862336520207585  1.0000
  O   O3        1.0  0.5627997043357179  0.5316279125918069  0.3626098732914631  1.0000
  O   O4        1.0  0.3435307707430866  0.9218026436491198  0.33268923701414144  1.0000
  O   O5        1.0  0.31797668646188804  0.3622628964931103  0.4295783224442502  1.0000
  O   O6        1.0  0.5257639563186487  0.7189610098012338  0.49784339938580047  1.0000
  O   O7        1.0  0.3269971577561499  0.9924410147927603  0.5639204489482381  1.0000
  O   O8        1.0  0.34557228121667904  0.3104728968996504  0.6161852121725104  1.0000
