data_image0
_chemical_formula_structural       Zr4O8
_chemical_formula_sum              "Zr4 O8"
_cell_length_a       5.1539878367877705
_cell_length_b       5.22810872
_cell_length_c       5.329696159145639
_cell_angle_alpha    90.0
_cell_angle_beta     99.43692258379697
_cell_angle_gamma    90.0

_space_group_name_H-M_alt    "P 1"
_space_group_IT_number       1

loop_
  _space_group_symop_operation_xyz
  'x, y, z'

loop_
  _atom_site_type_symbol
  _atom_site_label
  _atom_site_symmetry_multiplicity
  _atom_site_fract_x
  _atom_site_fract_y
  _atom_site_fract_z
  _atom_site_occupancy
  Zr  Zr1       1.0  0.6663407774909125  0.8699405185866027  0.7514330055294378  1.0000
  Zr  Zr2       1.0  0.2612960208804722  0.8637279837587677  0.30436473956383914  1.0000
  Zr  Zr3       1.0  0.9774931742952866  0.16276684931095886  0.03334878559205934  1.0000
  Zr  Zr4       1.0  0.7925163196089571  0.11000254591726488  0.6271970250005641  1.0000
  O   O1        1.0  0.8364347865821777  0.6018301335710063  0.35903413358136405  1.0000
  O   O2        1.0  0.09531545723977608  0.9186460883103571  0.4916048916558893  1.0000
  O   O3        1.0  0.4925882319586632  0.5977346690819934  0.19251520641333109  1.0000
  O   O4        1.0  0.21593516346573338  0.7946588391750691  0.6624111885938948  1.0000
  O   O5        1.0  0.8228750953097608  0.38341130201213147  0.07011781798643568  1.0000
  O   O6        1.0  0.6267694603726106  0.12932746196664624  0.9211891731105091  1.0000
  O   O7        1.0  0.37195171038245345  0.04804706580926421  0.16744470993782556  1.0000
  O   O8        1.0  0.9798610733668198  0.3248548975024619  0.9382936638613533  1.0000
