data_image0
_chemical_formula_structural       Zr4O8
_chemical_formula_sum              "Zr4 O8"
_cell_length_a       5.1539878367877705
_cell_length_b       5.22810872
_cell_length_c       5.329696159145639
_cell_angle_alpha    90.0
_cell_angle_beta     99.43692258379697
_cell_angle_gamma    90.0

_space_group_name_H-M_alt    "P 1"
_space_group_IT_number       1

loop_
  _space_group_symop_operation_xyz
  'x, y, z'

loop_
  _atom_site_type_symbol
  _atom_site_label
  _atom_site_symmetry_multiplicity
  _atom_site_fract_x
  _atom_site_fract_y
  _atom_site_fract_z
  _atom_site_occupancy
  Zr  Zr1       1.0  0.22170066792163823  0.5750493666361578  0.5227396801134603  1.0000
  Zr  Zr2       1.0  0.20276403855205505  0.22595146070077265  0.5523190675195915  1.0000
  Zr  Zr3       1.0  0.6403564135914088  0.17548309573110998  0.0007415979329024047  1.0000
  Zr  Zr4       1.0  0.8368151268891189  0.8237360078244791  0.2042501204285756  1.0000
  O   O1        1.0  0.526185483079189  0.6309435953409661  0.9472294197890534  1.0000
  O   O2        1.0  0.9320276597982797  0.5661420649730928  0.1554324185800624  1.0000
  O   O3        1.0  0.2209947256903746  0.7163114135907023  0.881494003362814  1.0000
  O   O4        1.0  0.6266947930704028  0.8335519070692712  0.20719898992692265  1.0000
  O   O5        1.0  0.5782825085493783  0.551375944438  0.2792662207586183  1.0000
  O   O6        1.0  0.1625809053264078  0.5438558159385352  0.911668154139142  1.0000
  O   O7        1.0  0.6163397025087409  0.19055132779837392  0.3929327932138982  1.0000
  O   O8        1.0  0.4822270749717812  0.4960272308438278  0.48977279901541415  1.0000
