data_image0
_chemical_formula_structural       Zr4O8
_chemical_formula_sum              "Zr4 O8"
_cell_length_a       5.1539878367877705
_cell_length_b       5.22810872
_cell_length_c       5.329696159145639
_cell_angle_alpha    90.0
_cell_angle_beta     99.43692258379697
_cell_angle_gamma    90.0

_space_group_name_H-M_alt    "P 1"
_space_group_IT_number       1

loop_
  _space_group_symop_operation_xyz
  'x, y, z'

loop_
  _atom_site_type_symbol
  _atom_site_label
  _atom_site_symmetry_multiplicity
  _atom_site_fract_x
  _atom_site_fract_y
  _atom_site_fract_z
  _atom_site_occupancy
  Zr  Zr1       1.0  0.8192855547896247  0.9213857266410823  0.4946233263727642  1.0000
  Zr  Zr2       1.0  0.8334783875705138  0.11171068958770469  0.33425182273072185  1.0000
  Zr  Zr3       1.0  0.29731220993159546  0.2200879808347569  0.6466055646847853  1.0000
  Zr  Zr4       1.0  0.4498299589054988  0.48009710956135976  0.566443165090778  1.0000
  O   O1        1.0  0.5534886912844534  0.8928399132178413  0.10126760580502037  1.0000
  O   O2        1.0  0.2885271348687013  0.5537051862203697  0.4737925799213478  1.0000
  O   O3        1.0  0.14617558262260033  0.22081134942286695  0.48020004691336027  1.0000
  O   O4        1.0  0.8701622929780388  0.14015314064012863  0.20152497476296283  1.0000
  O   O5        1.0  0.797480548747151  0.3891559137836751  0.30314489018603297  1.0000
  O   O6        1.0  0.8672043980398385  0.5549216454233701  0.9125439425448115  1.0000
  O   O7        1.0  0.6195805233710452  0.4414520154783439  0.7396732009679674  1.0000
  O   O8        1.0  0.7160440756427597  0.9991944174060805  0.490360624174464  1.0000
