data_image0
_chemical_formula_structural       Zr4O8
_chemical_formula_sum              "Zr4 O8"
_cell_length_a       5.1539878367877705
_cell_length_b       5.22810872
_cell_length_c       5.329696159145639
_cell_angle_alpha    90.0
_cell_angle_beta     99.43692258379697
_cell_angle_gamma    90.0

_space_group_name_H-M_alt    "P 1"
_space_group_IT_number       1

loop_
  _space_group_symop_operation_xyz
  'x, y, z'

loop_
  _atom_site_type_symbol
  _atom_site_label
  _atom_site_symmetry_multiplicity
  _atom_site_fract_x
  _atom_site_fract_y
  _atom_site_fract_z
  _atom_site_occupancy
  Zr  Zr1       1.0  0.42983158222311424  0.8952409279875209  0.5191114726589265  1.0000
  Zr  Zr2       1.0  0.8316530391491774  0.9863766815044279  0.823732636919372  1.0000
  Zr  Zr3       1.0  0.30407240264129065  0.46571737591605844  0.9829505822061275  1.0000
  Zr  Zr4       1.0  0.2314818281989015  0.35184778532641303  0.06539311707696083  1.0000
  O   O1        1.0  0.873528636250736  0.8054337289512645  0.0996760385748452  1.0000
  O   O2        1.0  0.3371480133229747  0.6855751746351206  0.5202891988824705  1.0000
  O   O3        1.0  0.9651846826001798  0.1983952659335717  0.3895729459898085  1.0000
  O   O4        1.0  0.918792876490663  0.9688454625856888  0.11962965355120225  1.0000
  O   O5        1.0  0.46899820425462657  0.2049371233374373  0.32173140663564936  1.0000
  O   O6        1.0  0.7803846876223925  0.8993974804026088  0.49349907173350593  1.0000
  O   O7        1.0  0.46835745706187026  0.5311331134393653  0.7955617883046777  1.0000
  O   O8        1.0  0.45685894079394096  0.11636544911362279  0.6177478121833841  1.0000
