data_image0
_chemical_formula_structural       Zr4O8
_chemical_formula_sum              "Zr4 O8"
_cell_length_a       5.1539878367877705
_cell_length_b       5.22810872
_cell_length_c       5.329696159145639
_cell_angle_alpha    90.0
_cell_angle_beta     99.43692258379697
_cell_angle_gamma    90.0

_space_group_name_H-M_alt    "P 1"
_space_group_IT_number       1

loop_
  _space_group_symop_operation_xyz
  'x, y, z'

loop_
  _atom_site_type_symbol
  _atom_site_label
  _atom_site_symmetry_multiplicity
  _atom_site_fract_x
  _atom_site_fract_y
  _atom_site_fract_z
  _atom_site_occupancy
  Zr  Zr1       1.0  0.1084602802756692  0.033074243600907494  0.08054865929514143  1.0000
  Zr  Zr2       1.0  0.06240680723956871  0.08341738318275738  0.48663486884264984  1.0000
  Zr  Zr3       1.0  0.1194789234601572  0.5795893439578608  0.5781209615463077  1.0000
  Zr  Zr4       1.0  0.001925044134718057  0.562082523066322  0.437655087055532  1.0000
  O   O1        1.0  0.6799126534788513  0.0006926088217156234  0.17992978496197765  1.0000
  O   O2        1.0  0.8112743401695652  0.45271101426398275  0.053641318239828095  1.0000
  O   O3        1.0  0.47264887227933805  0.4055226931039151  0.567736802889188  1.0000
  O   O4        1.0  0.8933737954704881  0.4383843479249536  0.6901584953171227  1.0000
  O   O5        1.0  0.8967465455817347  0.7109400379971405  0.029803540567215236  1.0000
  O   O6        1.0  0.9936781759554592  0.932062893429233  0.09125678075203325  1.0000
  O   O7        1.0  0.27050544663118714  0.3947903723915136  0.7663387616193802  1.0000
  O   O8        1.0  0.06267553330103759  0.11676710626237607  0.5983534956967409  1.0000
