data_image0
_chemical_formula_structural       Zr4O8
_chemical_formula_sum              "Zr4 O8"
_cell_length_a       5.1539878367877705
_cell_length_b       5.22810872
_cell_length_c       5.329696159145639
_cell_angle_alpha    90.0
_cell_angle_beta     99.43692258379697
_cell_angle_gamma    90.0

_space_group_name_H-M_alt    "P 1"
_space_group_IT_number       1

loop_
  _space_group_symop_operation_xyz
  'x, y, z'

loop_
  _atom_site_type_symbol
  _atom_site_label
  _atom_site_symmetry_multiplicity
  _atom_site_fract_x
  _atom_site_fract_y
  _atom_site_fract_z
  _atom_site_occupancy
  Zr  Zr1       1.0  0.1835125838981968  0.6215364452935912  0.3278711239913623  1.0000
  Zr  Zr2       1.0  0.39979553725769024  0.42149949474908865  0.2426094353688688  1.0000
  Zr  Zr3       1.0  0.7102141049116097  0.1613344604838236  0.9052478121066585  1.0000
  Zr  Zr4       1.0  0.787778413234518  0.24021102035908015  0.7676331679814066  1.0000
  O   O1        1.0  0.23799560067542025  0.21698320598570286  0.42598935462858734  1.0000
  O   O2        1.0  0.6992565686146284  0.08204773083092931  0.17065465583820671  1.0000
  O   O3        1.0  0.18231628562576674  0.5719092447555241  0.4195988987406718  1.0000
  O   O4        1.0  0.346736826291437  0.9516032062668174  0.8877651649873641  1.0000
  O   O5        1.0  0.8382739673238291  0.9786578345856825  0.8398630591869649  1.0000
  O   O6        1.0  0.7900261860999063  0.09615125011170989  0.7764035045957911  1.0000
  O   O7        1.0  0.2182405459524257  0.3367046766316353  0.663401995534457  1.0000
  O   O8        1.0  0.35964300944921673  0.03919502130095509  0.441085407024957  1.0000
