data_image0
_chemical_formula_structural       Zr4O8
_chemical_formula_sum              "Zr4 O8"
_cell_length_a       5.1539878367877705
_cell_length_b       5.22810872
_cell_length_c       5.329696159145639
_cell_angle_alpha    90.0
_cell_angle_beta     99.43692258379697
_cell_angle_gamma    90.0

_space_group_name_H-M_alt    "P 1"
_space_group_IT_number       1

loop_
  _space_group_symop_operation_xyz
  'x, y, z'

loop_
  _atom_site_type_symbol
  _atom_site_label
  _atom_site_symmetry_multiplicity
  _atom_site_fract_x
  _atom_site_fract_y
  _atom_site_fract_z
  _atom_site_occupancy
  Zr  Zr1       1.0  0.1597477237139575  0.04895428581953709  0.7489452411696682  1.0000
  Zr  Zr2       1.0  0.6926346030407151  0.9494135787392908  0.471245610238026  1.0000
  Zr  Zr3       1.0  0.4773717352546192  0.9267134046059873  0.03252920550126781  1.0000
  Zr  Zr4       1.0  0.31541047880096995  0.6566871190263548  0.37217236327533065  1.0000
  O   O1        1.0  0.03421210538424191  0.3542075636649251  0.5859776970580568  1.0000
  O   O2        1.0  0.26843008602366325  0.6568619411654026  0.9395866796059735  1.0000
  O   O3        1.0  0.36750450974855653  0.99238916016742  0.1936146243537813  1.0000
  O   O4        1.0  0.542471202386932  0.19589941717469372  0.6443186711649638  1.0000
  O   O5        1.0  0.43137589534098675  0.8709288701895375  0.21970935070958575  1.0000
  O   O6        1.0  0.15936059932532487  0.7502201251632457  0.4431408275518876  1.0000
  O   O7        1.0  0.5548823672556829  0.5430910071368533  0.7034695629875287  1.0000
  O   O8        1.0  0.29904393966591947  0.09542497851452225  0.7805441136085225  1.0000
