data_image0
_chemical_formula_structural       Zr4O8
_chemical_formula_sum              "Zr4 O8"
_cell_length_a       5.1539878367877705
_cell_length_b       5.22810872
_cell_length_c       5.329696159145639
_cell_angle_alpha    90.0
_cell_angle_beta     99.43692258379697
_cell_angle_gamma    90.0

_space_group_name_H-M_alt    "P 1"
_space_group_IT_number       1

loop_
  _space_group_symop_operation_xyz
  'x, y, z'

loop_
  _atom_site_type_symbol
  _atom_site_label
  _atom_site_symmetry_multiplicity
  _atom_site_fract_x
  _atom_site_fract_y
  _atom_site_fract_z
  _atom_site_occupancy
  Zr  Zr1       1.0  0.7632316653101192  0.02839658978333892  0.6089852674038774  1.0000
  Zr  Zr2       1.0  0.9339024621103191  0.3785830992515393  0.5007495622138332  1.0000
  Zr  Zr3       1.0  0.17510592462965047  0.5642137862600354  0.05494202138097748  1.0000
  Zr  Zr4       1.0  0.5701108714812939  0.10049074662646129  0.04812880742034853  1.0000
  O   O1        1.0  0.7695217686221607  0.9596316352222871  0.16414777399495506  1.0000
  O   O2        1.0  0.8447097202261258  0.003930951711305752  0.9370260061136837  1.0000
  O   O3        1.0  0.43186073439732553  0.8367326292314736  0.7109387173508339  1.0000
  O   O4        1.0  0.15363845631892303  0.11127611364373458  0.018647173646458626  1.0000
  O   O5        1.0  0.06027836088079397  0.6828239692635023  0.9986376568018125  1.0000
  O   O6        1.0  0.8483422783894721  0.8980547152085654  0.424381497907123  1.0000
  O   O7        1.0  0.8532537559043494  0.03822934961497815  0.45583960715087457  1.0000
  O   O8        1.0  0.39064952299136113  0.6441445317010377  0.635642243128582  1.0000
