data_image0
_chemical_formula_structural       Zr4O8
_chemical_formula_sum              "Zr4 O8"
_cell_length_a       5.1539878367877705
_cell_length_b       5.22810872
_cell_length_c       5.329696159145639
_cell_angle_alpha    90.0
_cell_angle_beta     99.43692258379697
_cell_angle_gamma    90.0

_space_group_name_H-M_alt    "P 1"
_space_group_IT_number       1

loop_
  _space_group_symop_operation_xyz
  'x, y, z'

loop_
  _atom_site_type_symbol
  _atom_site_label
  _atom_site_symmetry_multiplicity
  _atom_site_fract_x
  _atom_site_fract_y
  _atom_site_fract_z
  _atom_site_occupancy
  Zr  Zr1       1.0  0.8372097026593437  0.7924605805869191  0.611385452383729  1.0000
  Zr  Zr2       1.0  0.2392059267564779  0.24524012135231044  0.7154196708793208  1.0000
  Zr  Zr3       1.0  0.19422236878116728  0.4405621870785552  0.31533360928648374  1.0000
  Zr  Zr4       1.0  0.1855610913891037  0.0328933233173041  0.6629701995935307  1.0000
  O   O1        1.0  0.9730061342634047  0.9429050611815484  0.19619912998725653  1.0000
  O   O2        1.0  0.27255691943260274  0.7087658214977353  0.03207059466467754  1.0000
  O   O3        1.0  0.6922799524021066  0.953797483303525  0.5617441491023065  1.0000
  O   O4        1.0  0.7906755407054327  0.15123781552088644  0.08053065130675918  1.0000
  O   O5        1.0  0.3197022038257149  0.7358480162112642  0.6928005540301427  1.0000
  O   O6        1.0  0.7276802173535657  0.36202309144279354  0.9165114779971475  1.0000
  O   O7        1.0  0.05508437967178992  0.09472444644669231  0.4110957513665028  1.0000
  O   O8        1.0  0.8388942590279687  0.40012097843616345  0.4788333924712065  1.0000
