data_image0
_chemical_formula_structural       Zr4O8
_chemical_formula_sum              "Zr4 O8"
_cell_length_a       5.1539878367877705
_cell_length_b       5.22810872
_cell_length_c       5.329696159145639
_cell_angle_alpha    90.0
_cell_angle_beta     99.43692258379697
_cell_angle_gamma    90.0

_space_group_name_H-M_alt    "P 1"
_space_group_IT_number       1

loop_
  _space_group_symop_operation_xyz
  'x, y, z'

loop_
  _atom_site_type_symbol
  _atom_site_label
  _atom_site_symmetry_multiplicity
  _atom_site_fract_x
  _atom_site_fract_y
  _atom_site_fract_z
  _atom_site_occupancy
  Zr  Zr1       1.0  0.1479518807311324  0.7257891437525372  0.3372407039214993  1.0000
  Zr  Zr2       1.0  0.4834199527531018  0.4214242235784855  0.4470303929442285  1.0000
  Zr  Zr3       1.0  0.5343871497426371  0.06690588749302862  0.6152367813072388  1.0000
  Zr  Zr4       1.0  0.9153405859048509  0.49237678175995203  0.7662600714744885  1.0000
  O   O1        1.0  0.015818192263852393  0.03218072652985704  0.5431837550328389  1.0000
  O   O2        1.0  0.36492446048503346  0.14034370541949137  0.5870305914224829  1.0000
  O   O3        1.0  0.5375383235676026  0.4473063806432833  0.9145767683075903  1.0000
  O   O4        1.0  0.4335971743533875  0.7728950275721971  0.2558092204394491  1.0000
  O   O5        1.0  0.15715356537977243  0.3185302875068743  0.03472728915664702  1.0000
  O   O6        1.0  0.010336377753501935  0.23291375695048622  0.17332591721716994  1.0000
  O   O7        1.0  0.2584331505018336  0.8220206144329723  0.5050722977576996  1.0000
  O   O8        1.0  0.48788307495231176  0.47154900262974486  0.371550141796809  1.0000
