data_image0
_chemical_formula_structural       Zr4O8
_chemical_formula_sum              "Zr4 O8"
_cell_length_a       5.1539878367877705
_cell_length_b       5.22810872
_cell_length_c       5.329696159145639
_cell_angle_alpha    90.0
_cell_angle_beta     99.43692258379697
_cell_angle_gamma    90.0

_space_group_name_H-M_alt    "P 1"
_space_group_IT_number       1

loop_
  _space_group_symop_operation_xyz
  'x, y, z'

loop_
  _atom_site_type_symbol
  _atom_site_label
  _atom_site_symmetry_multiplicity
  _atom_site_fract_x
  _atom_site_fract_y
  _atom_site_fract_z
  _atom_site_occupancy
  Zr  Zr1       1.0  0.7791592267980931  0.8015206233055334  0.42891840338882803  1.0000
  Zr  Zr2       1.0  0.20357643347673182  0.2511988832793257  0.5370131309294326  1.0000
  Zr  Zr3       1.0  0.470479798601513  0.9474850435410316  0.13443500491291083  1.0000
  Zr  Zr4       1.0  0.8632579197257386  0.06879993020671549  0.4471975263190524  1.0000
  O   O1        1.0  0.48864401208519226  0.6662409868197727  0.46348415319565817  1.0000
  O   O2        1.0  0.15084354108084774  0.07453912155787101  0.018818814151313035  1.0000
  O   O3        1.0  0.9950350768103942  0.7497457318447891  0.1518578437867486  1.0000
  O   O4        1.0  0.7243219235452507  0.8588039399457728  0.10780029288077486  1.0000
  O   O5        1.0  0.5920087422013838  0.8398328196965537  0.4829647571997384  1.0000
  O   O6        1.0  0.5034876881833306  0.3014403866828701  0.013209445359753325  1.0000
  O   O7        1.0  0.4647119999798642  0.7458842540390416  0.13995662546312104  1.0000
  O   O8        1.0  0.8032881761537389  0.20788533831400002  0.5568122108446918  1.0000
