data_image0
_chemical_formula_structural       Zr4O8
_chemical_formula_sum              "Zr4 O8"
_cell_length_a       5.1539878367877705
_cell_length_b       5.22810872
_cell_length_c       5.329696159145639
_cell_angle_alpha    90.0
_cell_angle_beta     99.43692258379697
_cell_angle_gamma    90.0

_space_group_name_H-M_alt    "P 1"
_space_group_IT_number       1

loop_
  _space_group_symop_operation_xyz
  'x, y, z'

loop_
  _atom_site_type_symbol
  _atom_site_label
  _atom_site_symmetry_multiplicity
  _atom_site_fract_x
  _atom_site_fract_y
  _atom_site_fract_z
  _atom_site_occupancy
  Zr  Zr1       1.0  0.07342624649972951  0.2846227105634931  0.6278616075356229  1.0000
  Zr  Zr2       1.0  0.7236795323730494  0.504860574257858  0.3444903243326838  1.0000
  Zr  Zr3       1.0  0.07164197792789828  0.7048523542958418  0.5274830959690959  1.0000
  Zr  Zr4       1.0  0.5529138211943563  0.49705077054950664  0.6546379341121984  1.0000
  O   O1        1.0  0.9659095782055616  0.21334466912305494  0.10838104291104145  1.0000
  O   O2        1.0  0.9700281060214675  0.6134640637641695  0.7080132591779238  1.0000
  O   O3        1.0  0.20541072249343695  0.42705129954322274  0.036625728101443045  1.0000
  O   O4        1.0  0.9154857341149736  0.9148945299595748  0.5722730338393782  1.0000
  O   O5        1.0  0.7929193005424313  0.7840660437998039  0.9243109262114189  1.0000
  O   O6        1.0  0.003922976113258869  0.9336790817131586  0.08869317521205744  1.0000
  O   O7        1.0  0.2971140019117975  0.6132934688533211  0.3502285624383603  1.0000
  O   O8        1.0  0.7991899871274413  0.9669370752582225  0.21008079607689467  1.0000
