data_image0
_chemical_formula_structural       Zr4O8
_chemical_formula_sum              "Zr4 O8"
_cell_length_a       5.1539878367877705
_cell_length_b       5.22810872
_cell_length_c       5.329696159145639
_cell_angle_alpha    90.0
_cell_angle_beta     99.43692258379697
_cell_angle_gamma    90.0

_space_group_name_H-M_alt    "P 1"
_space_group_IT_number       1

loop_
  _space_group_symop_operation_xyz
  'x, y, z'

loop_
  _atom_site_type_symbol
  _atom_site_label
  _atom_site_symmetry_multiplicity
  _atom_site_fract_x
  _atom_site_fract_y
  _atom_site_fract_z
  _atom_site_occupancy
  Zr  Zr1       1.0  0.6343537965195463  0.6367697134472667  0.4902842783723207  1.0000
  Zr  Zr2       1.0  0.40503272643442934  0.9509620901933964  0.08033576526667474  1.0000
  Zr  Zr3       1.0  0.06793349551703187  0.4902478050979697  0.5481470173909747  1.0000
  Zr  Zr4       1.0  0.610268421086658  0.10377620297389889  0.2677487733865039  1.0000
  O   O1        1.0  0.34883792373925715  0.3684422388494468  0.01327725521501577  1.0000
  O   O2        1.0  0.8050567542980342  0.38786103991005394  0.142744891186819  1.0000
  O   O3        1.0  0.26973998378189945  0.5600302306705046  0.1314699931839982  1.0000
  O   O4        1.0  0.012226158872188364  0.5966797595492004  0.2634237983799448  1.0000
  O   O5        1.0  0.8567332098745446  0.8357809162550645  0.08189250402432435  1.0000
  O   O6        1.0  0.7331670434362394  0.23628424640326529  0.6038292989440046  1.0000
  O   O7        1.0  0.5050413616540954  0.5269945632749575  0.24957694696284705  1.0000
  O   O8        1.0  0.319894467102646  0.23328788462357153  0.12301808548511417  1.0000
