data_image0
_chemical_formula_structural       Zr4O8
_chemical_formula_sum              "Zr4 O8"
_cell_length_a       5.1539878367877705
_cell_length_b       5.22810872
_cell_length_c       5.329696159145639
_cell_angle_alpha    90.0
_cell_angle_beta     99.43692258379697
_cell_angle_gamma    90.0

_space_group_name_H-M_alt    "P 1"
_space_group_IT_number       1

loop_
  _space_group_symop_operation_xyz
  'x, y, z'

loop_
  _atom_site_type_symbol
  _atom_site_label
  _atom_site_symmetry_multiplicity
  _atom_site_fract_x
  _atom_site_fract_y
  _atom_site_fract_z
  _atom_site_occupancy
  Zr  Zr1       1.0  0.1281467967680996  0.8638497946248833  0.49267609009623925  1.0000
  Zr  Zr2       1.0  0.5472861686181556  0.9286552726516253  0.2252251450634022  1.0000
  Zr  Zr3       1.0  0.8476038887137847  0.3980817167189876  0.13098328628129496  1.0000
  Zr  Zr4       1.0  0.6942682615960312  0.6147733212587916  0.8824373919353548  1.0000
  O   O1        1.0  0.950426522271556  0.27396445184451323  0.7474115614834957  1.0000
  O   O2        1.0  0.03779078298325089  0.37973372229301106  0.8743528837432848  1.0000
  O   O3        1.0  0.20665146047138272  0.4874076460313006  0.8588123230470579  1.0000
  O   O4        1.0  0.683986293790376  0.11804898450361634  0.575676787824257  1.0000
  O   O5        1.0  0.4957737662949846  0.9508338843029946  0.0393957905000093  1.0000
  O   O6        1.0  0.46052587986873306  0.8510128714915339  0.8730005174269309  1.0000
  O   O7        1.0  0.7111949834521294  0.10660093930008552  0.8574063589275696  1.0000
  O   O8        1.0  0.7927809890471353  0.28549907354145265  0.021530137067539812  1.0000
