data_image0
_chemical_formula_structural       Zr4O8
_chemical_formula_sum              "Zr4 O8"
_cell_length_a       5.1539878367877705
_cell_length_b       5.22810872
_cell_length_c       5.329696159145639
_cell_angle_alpha    90.0
_cell_angle_beta     99.43692258379697
_cell_angle_gamma    90.0

_space_group_name_H-M_alt    "P 1"
_space_group_IT_number       1

loop_
  _space_group_symop_operation_xyz
  'x, y, z'

loop_
  _atom_site_type_symbol
  _atom_site_label
  _atom_site_symmetry_multiplicity
  _atom_site_fract_x
  _atom_site_fract_y
  _atom_site_fract_z
  _atom_site_occupancy
  Zr  Zr1       1.0  0.20620912321484397  0.9134508932224268  0.20600388089121235  1.0000
  Zr  Zr2       1.0  0.9286973197668917  0.13365633311606118  0.3662301165516091  1.0000
  Zr  Zr3       1.0  0.6569712341157636  0.8011153335699519  0.35678895390057086  1.0000
  Zr  Zr4       1.0  0.35567967468497197  0.046704300286640965  0.47785097213347516  1.0000
  O   O1        1.0  0.036267257938071396  0.9246180311252488  0.6366781688992607  1.0000
  O   O2        1.0  0.31838883335676904  0.9436210081250982  0.9460606466496149  1.0000
  O   O3        1.0  0.03928765868111661  0.38420359190385955  0.8821062160938062  1.0000
  O   O4        1.0  0.22992094196719037  0.3580013703726621  0.1697110272351421  1.0000
  O   O5        1.0  0.894489207740726  0.3968854525264618  0.4091830588975043  1.0000
  O   O6        1.0  0.06288774729982904  0.37462619527800456  0.5073977226335402  1.0000
  O   O7        1.0  0.17290633789361287  0.28708934885695747  0.2306765834165887  1.0000
  O   O8        1.0  0.1532055301701627  0.30360232788699903  0.26717440342078724  1.0000
