data_image0
_chemical_formula_structural       Zr4O8
_chemical_formula_sum              "Zr4 O8"
_cell_length_a       5.1539878367877705
_cell_length_b       5.22810872
_cell_length_c       5.329696159145639
_cell_angle_alpha    90.0
_cell_angle_beta     99.43692258379697
_cell_angle_gamma    90.0

_space_group_name_H-M_alt    "P 1"
_space_group_IT_number       1

loop_
  _space_group_symop_operation_xyz
  'x, y, z'

loop_
  _atom_site_type_symbol
  _atom_site_label
  _atom_site_symmetry_multiplicity
  _atom_site_fract_x
  _atom_site_fract_y
  _atom_site_fract_z
  _atom_site_occupancy
  Zr  Zr1       1.0  0.3435738810935085  0.36718493408369746  0.671176938229503  1.0000
  Zr  Zr2       1.0  0.5161742949036991  0.9386190605462374  0.7888480459067377  1.0000
  Zr  Zr3       1.0  0.9257260095710205  0.986610603074212  0.651537922351169  1.0000
  Zr  Zr4       1.0  0.8977355308928228  0.9017791901841834  0.35819568476956576  1.0000
  O   O1        1.0  0.07476122706347077  0.7150147259277766  0.7120797040579046  1.0000
  O   O2        1.0  0.7053940415406235  0.9988417057580934  0.15587444960965202  1.0000
  O   O3        1.0  0.48926393547619806  0.5058855197525012  0.8341719022290235  1.0000
  O   O4        1.0  0.876041044049808  0.10534399380719606  0.5329299506432577  1.0000
  O   O5        1.0  0.20556919034317467  0.040360968539607356  0.11340728252517707  1.0000
  O   O6        1.0  0.788660900157943  0.9063970926218365  0.3980287452136686  1.0000
  O   O7        1.0  0.5879318167238319  0.1302944696196846  0.25570044787016855  1.0000
  O   O8        1.0  0.6116651546913516  0.9838319680566556  0.2784961086904336  1.0000
