data_image0
_chemical_formula_structural       Zr4O8
_chemical_formula_sum              "Zr4 O8"
_cell_length_a       5.1539878367877705
_cell_length_b       5.22810872
_cell_length_c       5.329696159145639
_cell_angle_alpha    90.0
_cell_angle_beta     99.43692258379697
_cell_angle_gamma    90.0

_space_group_name_H-M_alt    "P 1"
_space_group_IT_number       1

loop_
  _space_group_symop_operation_xyz
  'x, y, z'

loop_
  _atom_site_type_symbol
  _atom_site_label
  _atom_site_symmetry_multiplicity
  _atom_site_fract_x
  _atom_site_fract_y
  _atom_site_fract_z
  _atom_site_occupancy
  Zr  Zr1       1.0  0.9610528517702512  0.09110330794980825  0.5978447922418404  1.0000
  Zr  Zr2       1.0  0.1673287053986563  0.30095839657738066  0.37780244114062267  1.0000
  Zr  Zr3       1.0  0.4535790406639144  0.5889279834809606  0.8928458601237264  1.0000
  Zr  Zr4       1.0  0.8164841448013282  0.5396355145234084  0.7073705163987256  1.0000
  O   O1        1.0  0.6999855447333783  0.8246693168545285  0.374604919598557  1.0000
  O   O2        1.0  0.9149385593607349  0.7162490198510625  0.6472579957998619  1.0000
  O   O3        1.0  0.7241312737850869  0.4675431702655075  0.8511785904167048  1.0000
  O   O4        1.0  0.32264882074049517  0.3970467664212123  0.671864208750435  1.0000
  O   O5        1.0  0.8612803330852081  0.5944209929986286  0.9527095271758022  1.0000
  O   O6        1.0  0.8975553378525092  0.05992104261945741  0.19473258868361754  1.0000
  O   O7        1.0  0.4106553766580454  0.42189238791431016  0.4162235259155125  1.0000
  O   O8        1.0  0.02520063159206032  0.2529833448720886  0.925197828313669  1.0000
