data_image0
_chemical_formula_structural       Zr4O8
_chemical_formula_sum              "Zr4 O8"
_cell_length_a       5.1539878367877705
_cell_length_b       5.22810872
_cell_length_c       5.329696159145639
_cell_angle_alpha    90.0
_cell_angle_beta     99.43692258379697
_cell_angle_gamma    90.0

_space_group_name_H-M_alt    "P 1"
_space_group_IT_number       1

loop_
  _space_group_symop_operation_xyz
  'x, y, z'

loop_
  _atom_site_type_symbol
  _atom_site_label
  _atom_site_symmetry_multiplicity
  _atom_site_fract_x
  _atom_site_fract_y
  _atom_site_fract_z
  _atom_site_occupancy
  Zr  Zr1       1.0  0.3457965468145723  0.8313596891142154  0.4652812554091401  1.0000
  Zr  Zr2       1.0  0.48423000476941525  0.6885907300946716  0.7273200490987008  1.0000
  Zr  Zr3       1.0  0.08728309508716281  0.06353560615854903  0.3091973243427466  1.0000
  Zr  Zr4       1.0  0.25749368933689487  0.29959586772091207  0.18323222802443695  1.0000
  O   O1        1.0  0.18208605556355328  0.9821998298345882  0.8492433726291999  1.0000
  O   O2        1.0  0.7946332343219495  0.7906472904366666  0.217837408242044  1.0000
  O   O3        1.0  0.8649303182401198  0.7277873154538916  0.06781456703664013  1.0000
  O   O4        1.0  0.7276638248986949  0.23749999195455018  0.09693477008242724  1.0000
  O   O5        1.0  0.7539285618091718  0.9428489825933895  0.7000752277271154  1.0000
  O   O6        1.0  0.9276795101290247  0.0026160809098350057  0.018825573961802178  1.0000
  O   O7        1.0  0.02937160412766815  0.9614148137787399  0.0944039894140225  1.0000
  O   O8        1.0  0.3223676955722219  0.09532042019668907  0.4773773198755178  1.0000
