data_image0
_chemical_formula_structural       Zr2
_chemical_formula_sum              "Zr2"
_cell_length_a       3.239231
_cell_length_b       3.2392318261441244
_cell_length_c       5.17222
_cell_angle_alpha    90.0
_cell_angle_beta     90.0
_cell_angle_gamma    120.00000177545368

_space_group_name_H-M_alt    "P 1"
_space_group_IT_number       1

loop_
  _space_group_symop_operation_xyz
  'x, y, z'

loop_
  _atom_site_type_symbol
  _atom_site_label
  _atom_site_symmetry_multiplicity
  _atom_site_fract_x
  _atom_site_fract_y
  _atom_site_fract_z
  _atom_site_occupancy
  Zr  Zr1       1.0  0.5674385546070182  0.7605250031012005  0.9684686130966984  1.0000
  Zr  Zr2       1.0  0.4325617601237499  0.23947509358586672  0.03153140530105247  1.0000
