data_image0
_chemical_formula_structural       Zr2
_chemical_formula_sum              "Zr2"
_cell_length_a       3.239231
_cell_length_b       3.2392318261441244
_cell_length_c       5.17222
_cell_angle_alpha    90.0
_cell_angle_beta     90.0
_cell_angle_gamma    120.00000177545368

_space_group_name_H-M_alt    "P 1"
_space_group_IT_number       1

loop_
  _space_group_symop_operation_xyz
  'x, y, z'

loop_
  _atom_site_type_symbol
  _atom_site_label
  _atom_site_symmetry_multiplicity
  _atom_site_fract_x
  _atom_site_fract_y
  _atom_site_fract_z
  _atom_site_occupancy
  Zr  Zr1       1.0  0.4036177398705014  0.6785935986060618  0.032656447243025966  1.0000
  Zr  Zr2       1.0  0.5963822846928863  0.32140628164549945  0.9673435417960015  1.0000
