data_image0
_chemical_formula_structural       La4
_chemical_formula_sum              "La4"
_cell_length_a       3.79631058
_cell_length_b       3.7963124114957743
_cell_length_c       12.04125753
_cell_angle_alpha    90.0
_cell_angle_beta     90.0
_cell_angle_gamma    120.00000329189716

_space_group_name_H-M_alt    "P 1"
_space_group_IT_number       1

loop_
  _space_group_symop_operation_xyz
  'x, y, z'

loop_
  _atom_site_type_symbol
  _atom_site_label
  _atom_site_symmetry_multiplicity
  _atom_site_fract_x
  _atom_site_fract_y
  _atom_site_fract_z
  _atom_site_occupancy
  La  La1       1.0  0.10630251286213133  0.42648254563285626  0.9960450231243794  1.0000
  La  La2       1.0  0.9338217186769482  0.18383410952125523  0.6270873720027841  1.0000
  La  La3       1.0  0.4146738259599685  0.04628796081002906  0.07527256739087328  1.0000
  La  La4       1.0  0.5452018661228306  0.3433954073636798  0.8015950738019282  1.0000
