data_image0
_chemical_formula_structural       La4
_chemical_formula_sum              "La4"
_cell_length_a       3.79631058
_cell_length_b       3.7963124114957743
_cell_length_c       12.04125753
_cell_angle_alpha    90.0
_cell_angle_beta     90.0
_cell_angle_gamma    120.00000329189716

_space_group_name_H-M_alt    "P 1"
_space_group_IT_number       1

loop_
  _space_group_symop_operation_xyz
  'x, y, z'

loop_
  _atom_site_type_symbol
  _atom_site_label
  _atom_site_symmetry_multiplicity
  _atom_site_fract_x
  _atom_site_fract_y
  _atom_site_fract_z
  _atom_site_occupancy
  La  La1       1.0  0.6476278300101832  0.16295950170318463  0.0897039179263106  1.0000
  La  La2       1.0  0.20887947341510982  0.012920576872457623  0.7738513854123541  1.0000
  La  La3       1.0  0.406152468807381  0.9300430770137886  0.26301672452078  1.0000
  La  La4       1.0  0.7373401521691072  0.8940769062175598  0.3734280188433283  1.0000
