data_image0
_chemical_formula_structural       La4
_chemical_formula_sum              "La4"
_cell_length_a       3.79631058
_cell_length_b       3.7963124114957743
_cell_length_c       12.04125753
_cell_angle_alpha    90.0
_cell_angle_beta     90.0
_cell_angle_gamma    120.00000329189716

_space_group_name_H-M_alt    "P 1"
_space_group_IT_number       1

loop_
  _space_group_symop_operation_xyz
  'x, y, z'

loop_
  _atom_site_type_symbol
  _atom_site_label
  _atom_site_symmetry_multiplicity
  _atom_site_fract_x
  _atom_site_fract_y
  _atom_site_fract_z
  _atom_site_occupancy
  La  La1       1.0  0.349171988368453  0.46764905842983495  0.04932654543790216  1.0000
  La  La2       1.0  0.6475309197046033  0.29149719596064383  0.6907350058074528  1.0000
  La  La3       1.0  0.0024582387157607855  0.305606830027628  0.06110654272495543  1.0000
  La  La4       1.0  0.0008387677480747868  0.9352469631780522  0.6988319534968226  1.0000
