data_image0
_chemical_formula_structural       La4
_chemical_formula_sum              "La4"
_cell_length_a       3.79631058
_cell_length_b       3.7963124114957743
_cell_length_c       12.04125753
_cell_angle_alpha    90.0
_cell_angle_beta     90.0
_cell_angle_gamma    120.00000329189716

_space_group_name_H-M_alt    "P 1"
_space_group_IT_number       1

loop_
  _space_group_symop_operation_xyz
  'x, y, z'

loop_
  _atom_site_type_symbol
  _atom_site_label
  _atom_site_symmetry_multiplicity
  _atom_site_fract_x
  _atom_site_fract_y
  _atom_site_fract_z
  _atom_site_occupancy
  La  La1       1.0  0.48273713044823197  0.1427868068070297  0.20892390100588099  1.0000
  La  La2       1.0  0.8015934644259364  0.6159882643633043  0.5082533177335211  1.0000
  La  La3       1.0  0.4584907147971098  0.19144374775644835  0.18340554419420996  1.0000
  La  La4       1.0  0.2571787714293947  0.04978123187192374  0.5994172300214071  1.0000
