data_image0
_chemical_formula_structural       La4
_chemical_formula_sum              "La4"
_cell_length_a       3.79631058
_cell_length_b       3.7963124114957743
_cell_length_c       12.04125753
_cell_angle_alpha    90.0
_cell_angle_beta     90.0
_cell_angle_gamma    120.00000329189716

_space_group_name_H-M_alt    "P 1"
_space_group_IT_number       1

loop_
  _space_group_symop_operation_xyz
  'x, y, z'

loop_
  _atom_site_type_symbol
  _atom_site_label
  _atom_site_symmetry_multiplicity
  _atom_site_fract_x
  _atom_site_fract_y
  _atom_site_fract_z
  _atom_site_occupancy
  La  La1       1.0  0.7699237940147867  0.7732847651039558  0.8908844174573582  1.0000
  La  La2       1.0  0.6408384998728822  0.5036270693350389  0.28089742144668906  1.0000
  La  La3       1.0  0.5178367481121313  0.993915113877037  0.7683496450273588  1.0000
  La  La4       1.0  0.07140105567288502  0.729173132093937  0.5598685124275993  1.0000
