data_image0
_chemical_formula_structural       La4
_chemical_formula_sum              "La4"
_cell_length_a       3.79631058
_cell_length_b       3.7963124114957743
_cell_length_c       12.04125753
_cell_angle_alpha    90.0
_cell_angle_beta     90.0
_cell_angle_gamma    120.00000329189716

_space_group_name_H-M_alt    "P 1"
_space_group_IT_number       1

loop_
  _space_group_symop_operation_xyz
  'x, y, z'

loop_
  _atom_site_type_symbol
  _atom_site_label
  _atom_site_symmetry_multiplicity
  _atom_site_fract_x
  _atom_site_fract_y
  _atom_site_fract_z
  _atom_site_occupancy
  La  La1       1.0  0.9942870697323309  0.441465973442023  0.649566758504152  1.0000
  La  La2       1.0  0.1907717855837392  0.6166584276624798  0.9917053810281558  1.0000
  La  La3       1.0  0.3417538921943042  0.4955628097269793  0.8922000558738992  1.0000
  La  La4       1.0  0.47318731475485176  0.44631297202769105  0.9665278654537817  1.0000
