data_image0
_chemical_formula_structural       La4
_chemical_formula_sum              "La4"
_cell_length_a       3.79631058
_cell_length_b       3.7963124114957743
_cell_length_c       12.04125753
_cell_angle_alpha    90.0
_cell_angle_beta     90.0
_cell_angle_gamma    120.00000329189716

_space_group_name_H-M_alt    "P 1"
_space_group_IT_number       1

loop_
  _space_group_symop_operation_xyz
  'x, y, z'

loop_
  _atom_site_type_symbol
  _atom_site_label
  _atom_site_symmetry_multiplicity
  _atom_site_fract_x
  _atom_site_fract_y
  _atom_site_fract_z
  _atom_site_occupancy
  La  La1       1.0  0.47267595587941  0.7766287168206993  0.8433359739064992  1.0000
  La  La2       1.0  0.01363655017648746  0.8431659605940123  0.5142152085823705  1.0000
  La  La3       1.0  0.45186264738606496  0.6035679720241127  0.2918073533493657  1.0000
  La  La4       1.0  0.06182499082838433  0.7766374474038713  0.8506414663173842  1.0000
