data_image0
_chemical_formula_structural       La4
_chemical_formula_sum              "La4"
_cell_length_a       3.79631058
_cell_length_b       3.7963124114957743
_cell_length_c       12.04125753
_cell_angle_alpha    90.0
_cell_angle_beta     90.0
_cell_angle_gamma    120.00000329189716

_space_group_name_H-M_alt    "P 1"
_space_group_IT_number       1

loop_
  _space_group_symop_operation_xyz
  'x, y, z'

loop_
  _atom_site_type_symbol
  _atom_site_label
  _atom_site_symmetry_multiplicity
  _atom_site_fract_x
  _atom_site_fract_y
  _atom_site_fract_z
  _atom_site_occupancy
  La  La1       1.0  0.06088053356166956  0.8938218734313049  0.8100123807403592  1.0000
  La  La2       1.0  0.7669085978661307  0.3632571560511302  0.3647374322587771  1.0000
  La  La3       1.0  0.5351456061812563  0.032706530985784354  0.7842869005169417  1.0000
  La  La4       1.0  0.63706536566597  0.7102145248370455  0.5409632820673322  1.0000
