data_image0
_chemical_formula_structural       La4
_chemical_formula_sum              "La4"
_cell_length_a       3.79631058
_cell_length_b       3.7963124114957743
_cell_length_c       12.04125753
_cell_angle_alpha    90.0
_cell_angle_beta     90.0
_cell_angle_gamma    120.00000329189716

_space_group_name_H-M_alt    "P 1"
_space_group_IT_number       1

loop_
  _space_group_symop_operation_xyz
  'x, y, z'

loop_
  _atom_site_type_symbol
  _atom_site_label
  _atom_site_symmetry_multiplicity
  _atom_site_fract_x
  _atom_site_fract_y
  _atom_site_fract_z
  _atom_site_occupancy
  La  La1       1.0  0.08261511430324475  0.9007321940346724  0.1302904735929431  1.0000
  La  La2       1.0  0.9235593059211489  0.941381127501077  0.7599692468881019  1.0000
  La  La3       1.0  0.5325154427964316  0.5123320295170157  0.7455516397078301  1.0000
  La  La4       1.0  0.46131014100130585  0.6455546516692525  0.864188638178818  1.0000
