data_image0
_chemical_formula_structural       La4
_chemical_formula_sum              "La4"
_cell_length_a       3.79631058
_cell_length_b       3.7963124114957743
_cell_length_c       12.04125753
_cell_angle_alpha    90.0
_cell_angle_beta     90.0
_cell_angle_gamma    120.00000329189716

_space_group_name_H-M_alt    "P 1"
_space_group_IT_number       1

loop_
  _space_group_symop_operation_xyz
  'x, y, z'

loop_
  _atom_site_type_symbol
  _atom_site_label
  _atom_site_symmetry_multiplicity
  _atom_site_fract_x
  _atom_site_fract_y
  _atom_site_fract_z
  _atom_site_occupancy
  La  La1       1.0  0.2551597030520458  0.5428200236587282  0.9908749022004919  1.0000
  La  La2       1.0  0.6567992704055339  0.9622099380299485  0.1443747776468248  1.0000
  La  La3       1.0  0.9038718342253169  0.6125482775317952  0.018743093546679912  1.0000
  La  La4       1.0  0.1841693102587918  0.8824218122480652  0.3460072294575989  1.0000
