data_image0
_chemical_formula_structural       La4
_chemical_formula_sum              "La4"
_cell_length_a       3.79631058
_cell_length_b       3.7963124114957743
_cell_length_c       12.04125753
_cell_angle_alpha    90.0
_cell_angle_beta     90.0
_cell_angle_gamma    120.00000329189716

_space_group_name_H-M_alt    "P 1"
_space_group_IT_number       1

loop_
  _space_group_symop_operation_xyz
  'x, y, z'

loop_
  _atom_site_type_symbol
  _atom_site_label
  _atom_site_symmetry_multiplicity
  _atom_site_fract_x
  _atom_site_fract_y
  _atom_site_fract_z
  _atom_site_occupancy
  La  La1       1.0  0.4114108661856104  0.9098142585195159  0.08823083460046988  1.0000
  La  La2       1.0  0.3884628485147483  0.20216041241151883  0.3314138518233608  1.0000
  La  La3       1.0  0.09478836135103696  0.2853930368697686  0.07061317270179934  1.0000
  La  La4       1.0  0.10533799766296781  0.6026324634732081  0.009742204253906372  1.0000
