data_image0
_chemical_formula_structural       La4
_chemical_formula_sum              "La4"
_cell_length_a       3.79631058
_cell_length_b       3.7963124114957743
_cell_length_c       12.04125753
_cell_angle_alpha    90.0
_cell_angle_beta     90.0
_cell_angle_gamma    120.00000329189716

_space_group_name_H-M_alt    "P 1"
_space_group_IT_number       1

loop_
  _space_group_symop_operation_xyz
  'x, y, z'

loop_
  _atom_site_type_symbol
  _atom_site_label
  _atom_site_symmetry_multiplicity
  _atom_site_fract_x
  _atom_site_fract_y
  _atom_site_fract_z
  _atom_site_occupancy
  La  La1       1.0  0.9903810145475385  0.28204865083376873  0.5159123870716202  1.0000
  La  La2       1.0  0.4094336999740781  0.9470785447575878  0.9399373590408726  1.0000
  La  La3       1.0  0.7470755198413781  0.3615820362626052  0.9878060242921443  1.0000
  La  La4       1.0  0.8531098304685454  0.4092909461228622  0.05634429164752408  1.0000
