data_image0
_chemical_formula_structural       La4
_chemical_formula_sum              "La4"
_cell_length_a       3.79631058
_cell_length_b       3.7963124114957743
_cell_length_c       12.04125753
_cell_angle_alpha    90.0
_cell_angle_beta     90.0
_cell_angle_gamma    120.00000329189716

_space_group_name_H-M_alt    "P 1"
_space_group_IT_number       1

loop_
  _space_group_symop_operation_xyz
  'x, y, z'

loop_
  _atom_site_type_symbol
  _atom_site_label
  _atom_site_symmetry_multiplicity
  _atom_site_fract_x
  _atom_site_fract_y
  _atom_site_fract_z
  _atom_site_occupancy
  La  La1       1.0  0.050465198472263495  0.6784960185128703  0.20031939380997588  1.0000
  La  La2       1.0  0.17713342430003118  0.8620046764842972  0.2791553614919249  1.0000
  La  La3       1.0  0.7260971818438584  0.2440371818046469  0.22628002025852934  1.0000
  La  La4       1.0  0.046304153406359294  0.21546213725117802  0.7942452494878471  1.0000
