data_image0
_chemical_formula_structural       La4
_chemical_formula_sum              "La4"
_cell_length_a       3.79631058
_cell_length_b       3.7963124114957743
_cell_length_c       12.04125753
_cell_angle_alpha    90.0
_cell_angle_beta     90.0
_cell_angle_gamma    120.00000329189716

_space_group_name_H-M_alt    "P 1"
_space_group_IT_number       1

loop_
  _space_group_symop_operation_xyz
  'x, y, z'

loop_
  _atom_site_type_symbol
  _atom_site_label
  _atom_site_symmetry_multiplicity
  _atom_site_fract_x
  _atom_site_fract_y
  _atom_site_fract_z
  _atom_site_occupancy
  La  La1       1.0  0.5290141917645803  0.42991996118824716  0.38929384784782606  1.0000
  La  La2       1.0  0.9904491484659417  0.7669128222808688  0.21362811579913718  1.0000
  La  La3       1.0  0.1870497111171212  0.44862400474362296  0.055067099441976186  1.0000
  La  La4       1.0  0.2934869890431777  0.3545433834220031  0.8420110085101564  1.0000
