data_image0
_chemical_formula_structural       La4
_chemical_formula_sum              "La4"
_cell_length_a       3.79631058
_cell_length_b       3.7963124114957743
_cell_length_c       12.04125753
_cell_angle_alpha    90.0
_cell_angle_beta     90.0
_cell_angle_gamma    120.00000329189716

_space_group_name_H-M_alt    "P 1"
_space_group_IT_number       1

loop_
  _space_group_symop_operation_xyz
  'x, y, z'

loop_
  _atom_site_type_symbol
  _atom_site_label
  _atom_site_symmetry_multiplicity
  _atom_site_fract_x
  _atom_site_fract_y
  _atom_site_fract_z
  _atom_site_occupancy
  La  La1       1.0  0.863697020326966  0.44210367025192276  0.42641904574001543  1.0000
  La  La2       1.0  0.675142290170974  0.5788073101305775  0.4583082108364822  1.0000
  La  La3       1.0  0.33107181221225  0.22550196162593927  0.932985573704646  1.0000
  La  La4       1.0  0.13008879011401575  0.7535870756558367  0.68228721496703  1.0000
