data_image0
_chemical_formula_structural       La4
_chemical_formula_sum              "La4"
_cell_length_a       3.79631058
_cell_length_b       3.7963124114957743
_cell_length_c       12.04125753
_cell_angle_alpha    90.0
_cell_angle_beta     90.0
_cell_angle_gamma    120.00000329189716

_space_group_name_H-M_alt    "P 1"
_space_group_IT_number       1

loop_
  _space_group_symop_operation_xyz
  'x, y, z'

loop_
  _atom_site_type_symbol
  _atom_site_label
  _atom_site_symmetry_multiplicity
  _atom_site_fract_x
  _atom_site_fract_y
  _atom_site_fract_z
  _atom_site_occupancy
  La  La1       1.0  0.02313540420691851  0.6558665097783063  0.9715801248250484  1.0000
  La  La2       1.0  0.042383399884484696  0.6362634435108001  0.9475899697544592  1.0000
  La  La3       1.0  0.11478971638929636  0.6253767036982509  0.2567649170893974  1.0000
  La  La4       1.0  0.8196913997088195  0.08249339951003165  0.3240650366659521  1.0000
