data_image0
_chemical_formula_structural       La4
_chemical_formula_sum              "La4"
_cell_length_a       3.79631058
_cell_length_b       3.7963124114957743
_cell_length_c       12.04125753
_cell_angle_alpha    90.0
_cell_angle_beta     90.0
_cell_angle_gamma    120.00000329189716

_space_group_name_H-M_alt    "P 1"
_space_group_IT_number       1

loop_
  _space_group_symop_operation_xyz
  'x, y, z'

loop_
  _atom_site_type_symbol
  _atom_site_label
  _atom_site_symmetry_multiplicity
  _atom_site_fract_x
  _atom_site_fract_y
  _atom_site_fract_z
  _atom_site_occupancy
  La  La1       1.0  0.4581530281016386  0.7180755508553567  0.6195506348833213  1.0000
  La  La2       1.0  0.6056316209263528  0.63044296664191  0.32890633212531695  1.0000
  La  La3       1.0  0.5622515819419034  0.8715536008607003  0.014157988874639926  1.0000
  La  La4       1.0  0.3739637987095108  0.7799278706685158  0.5373850357804579  1.0000
