data_image0
_chemical_formula_structural       La4
_chemical_formula_sum              "La4"
_cell_length_a       3.79631058
_cell_length_b       3.7963124114957743
_cell_length_c       12.04125753
_cell_angle_alpha    90.0
_cell_angle_beta     90.0
_cell_angle_gamma    120.00000329189716

_space_group_name_H-M_alt    "P 1"
_space_group_IT_number       1

loop_
  _space_group_symop_operation_xyz
  'x, y, z'

loop_
  _atom_site_type_symbol
  _atom_site_label
  _atom_site_symmetry_multiplicity
  _atom_site_fract_x
  _atom_site_fract_y
  _atom_site_fract_z
  _atom_site_occupancy
  La  La1       1.0  0.7659855030746687  0.7599910091883817  0.045245686809102015  1.0000
  La  La2       1.0  0.5249496459414265  0.4144391601838442  0.4770932091394915  1.0000
  La  La3       1.0  0.3370999650901556  0.742702268831259  0.08278438425145662  1.0000
  La  La4       1.0  0.37196487012291835  0.08286752709154133  0.8948767218453744  1.0000
