data_image0
_chemical_formula_structural       La4
_chemical_formula_sum              "La4"
_cell_length_a       3.79631058
_cell_length_b       3.7963124114957743
_cell_length_c       12.04125753
_cell_angle_alpha    90.0
_cell_angle_beta     90.0
_cell_angle_gamma    120.00000329189716

_space_group_name_H-M_alt    "P 1"
_space_group_IT_number       1

loop_
  _space_group_symop_operation_xyz
  'x, y, z'

loop_
  _atom_site_type_symbol
  _atom_site_label
  _atom_site_symmetry_multiplicity
  _atom_site_fract_x
  _atom_site_fract_y
  _atom_site_fract_z
  _atom_site_occupancy
  La  La1       1.0  0.004098888091075281  0.35126075400054724  0.3056875956655345  1.0000
  La  La2       1.0  0.8194767623093107  0.9516136648551061  0.017357660036306805  1.0000
  La  La3       1.0  0.3941309540125104  0.4430637269206219  0.3130374873262465  1.0000
  La  La4       1.0  0.7822935357306182  0.25406197120138074  0.8639172604578533  1.0000
