data_image0
_chemical_formula_structural       La4
_chemical_formula_sum              "La4"
_cell_length_a       3.79631058
_cell_length_b       3.7963124114957743
_cell_length_c       12.04125753
_cell_angle_alpha    90.0
_cell_angle_beta     90.0
_cell_angle_gamma    120.00000329189716

_space_group_name_H-M_alt    "P 1"
_space_group_IT_number       1

loop_
  _space_group_symop_operation_xyz
  'x, y, z'

loop_
  _atom_site_type_symbol
  _atom_site_label
  _atom_site_symmetry_multiplicity
  _atom_site_fract_x
  _atom_site_fract_y
  _atom_site_fract_z
  _atom_site_occupancy
  La  La1       1.0  0.04024703600529378  0.2628973797031058  0.7265464618712847  1.0000
  La  La2       1.0  0.3471848994872557  0.522718436474447  0.9782520307580866  1.0000
  La  La3       1.0  0.23535392102337127  0.08308671654772937  0.17520508523627631  1.0000
  La  La4       1.0  0.3772142588713068  0.13129756562704742  0.6199964142045329  1.0000
