data_image0
_chemical_formula_structural       La4
_chemical_formula_sum              "La4"
_cell_length_a       3.79631058
_cell_length_b       3.7963124114957743
_cell_length_c       12.04125753
_cell_angle_alpha    90.0
_cell_angle_beta     90.0
_cell_angle_gamma    120.00000329189716

_space_group_name_H-M_alt    "P 1"
_space_group_IT_number       1

loop_
  _space_group_symop_operation_xyz
  'x, y, z'

loop_
  _atom_site_type_symbol
  _atom_site_label
  _atom_site_symmetry_multiplicity
  _atom_site_fract_x
  _atom_site_fract_y
  _atom_site_fract_z
  _atom_site_occupancy
  La  La1       1.0  0.8735052762740327  0.2701003229570884  0.2522206402293068  1.0000
  La  La2       1.0  0.7632463565530241  0.5576847496228474  0.7268703121186677  1.0000
  La  La3       1.0  0.6828205457853223  0.8583116115166263  0.17838104845525726  1.0000
  La  La4       1.0  0.6804279310942936  0.3139034088724699  0.3425279865562896  1.0000
