data_image0
_chemical_formula_structural       La4
_chemical_formula_sum              "La4"
_cell_length_a       3.79631058
_cell_length_b       3.7963124114957743
_cell_length_c       12.04125753
_cell_angle_alpha    90.0
_cell_angle_beta     90.0
_cell_angle_gamma    120.00000329189716

_space_group_name_H-M_alt    "P 1"
_space_group_IT_number       1

loop_
  _space_group_symop_operation_xyz
  'x, y, z'

loop_
  _atom_site_type_symbol
  _atom_site_label
  _atom_site_symmetry_multiplicity
  _atom_site_fract_x
  _atom_site_fract_y
  _atom_site_fract_z
  _atom_site_occupancy
  La  La1       1.0  0.6048747021917951  0.8709937042989164  0.06261995567964185  1.0000
  La  La2       1.0  0.6588620428302399  0.10618650205546487  0.2669864119121743  1.0000
  La  La3       1.0  0.8950807740818374  0.6514324444060628  0.7751984123631577  1.0000
  La  La4       1.0  0.8411825195315877  0.37138753374851063  0.3951953043389649  1.0000
