data_image0
_chemical_formula_structural       La4
_chemical_formula_sum              "La4"
_cell_length_a       3.79631058
_cell_length_b       3.7963124114957743
_cell_length_c       12.04125753
_cell_angle_alpha    90.0
_cell_angle_beta     90.0
_cell_angle_gamma    120.00000329189716

_space_group_name_H-M_alt    "P 1"
_space_group_IT_number       1

loop_
  _space_group_symop_operation_xyz
  'x, y, z'

loop_
  _atom_site_type_symbol
  _atom_site_label
  _atom_site_symmetry_multiplicity
  _atom_site_fract_x
  _atom_site_fract_y
  _atom_site_fract_z
  _atom_site_occupancy
  La  La1       1.0  0.6747208752817588  0.6323019993621939  0.06525667882570874  1.0000
  La  La2       1.0  0.021478960983759343  0.9255903705623192  0.6530003706351912  1.0000
  La  La3       1.0  0.26353342139951863  0.7548837021474188  0.32247102121244464  1.0000
  La  La4       1.0  0.04026684880528775  0.687224018512925  0.4592719157745604  1.0000
