data_image0
_chemical_formula_structural       La4
_chemical_formula_sum              "La4"
_cell_length_a       3.79631058
_cell_length_b       3.7963124114957743
_cell_length_c       12.04125753
_cell_angle_alpha    90.0
_cell_angle_beta     90.0
_cell_angle_gamma    120.00000329189716

_space_group_name_H-M_alt    "P 1"
_space_group_IT_number       1

loop_
  _space_group_symop_operation_xyz
  'x, y, z'

loop_
  _atom_site_type_symbol
  _atom_site_label
  _atom_site_symmetry_multiplicity
  _atom_site_fract_x
  _atom_site_fract_y
  _atom_site_fract_z
  _atom_site_occupancy
  La  La1       1.0  0.13036002173267214  0.3267145438961203  0.12349807637873988  1.0000
  La  La2       1.0  0.707692405510322  0.11334419451779043  0.6528697495133369  1.0000
  La  La3       1.0  0.7225341971330295  0.7915401969969196  0.07992786125783383  1.0000
  La  La4       1.0  0.43941346384177304  0.7684011293038893  0.6437043042602557  1.0000
