data_image0
_chemical_formula_structural       La4
_chemical_formula_sum              "La4"
_cell_length_a       3.79631058
_cell_length_b       3.7963124114957743
_cell_length_c       12.04125753
_cell_angle_alpha    90.0
_cell_angle_beta     90.0
_cell_angle_gamma    120.00000329189716

_space_group_name_H-M_alt    "P 1"
_space_group_IT_number       1

loop_
  _space_group_symop_operation_xyz
  'x, y, z'

loop_
  _atom_site_type_symbol
  _atom_site_label
  _atom_site_symmetry_multiplicity
  _atom_site_fract_x
  _atom_site_fract_y
  _atom_site_fract_z
  _atom_site_occupancy
  La  La1       1.0  0.8245080068224926  0.490647969393347  0.7204041340204501  1.0000
  La  La2       1.0  0.7507742860712687  0.2626028334380255  0.5206087443614615  1.0000
  La  La3       1.0  0.21828334787917214  0.06808321717401355  0.9827124039288757  1.0000
  La  La4       1.0  0.20643427017847893  0.1786659998179978  0.276274759647003  1.0000
