data_image0
_chemical_formula_structural       La4
_chemical_formula_sum              "La4"
_cell_length_a       3.79631058
_cell_length_b       3.7963124114957743
_cell_length_c       12.04125753
_cell_angle_alpha    90.0
_cell_angle_beta     90.0
_cell_angle_gamma    120.00000329189716

_space_group_name_H-M_alt    "P 1"
_space_group_IT_number       1

loop_
  _space_group_symop_operation_xyz
  'x, y, z'

loop_
  _atom_site_type_symbol
  _atom_site_label
  _atom_site_symmetry_multiplicity
  _atom_site_fract_x
  _atom_site_fract_y
  _atom_site_fract_z
  _atom_site_occupancy
  La  La1       1.0  0.08777820799984326  0.8223160242952501  0.0629740485042154  1.0000
  La  La2       1.0  0.5828674675266328  0.3731545615062437  0.7625360784304162  1.0000
  La  La3       1.0  0.780297356515979  0.20545590165514582  0.42260454341389053  1.0000
  La  La4       1.0  0.5490570757416648  0.5990735450037654  0.25188533023669724  1.0000
