data_image0
_chemical_formula_structural       La4
_chemical_formula_sum              "La4"
_cell_length_a       3.79631058
_cell_length_b       3.7963124114957743
_cell_length_c       12.04125753
_cell_angle_alpha    90.0
_cell_angle_beta     90.0
_cell_angle_gamma    120.00000329189716

_space_group_name_H-M_alt    "P 1"
_space_group_IT_number       1

loop_
  _space_group_symop_operation_xyz
  'x, y, z'

loop_
  _atom_site_type_symbol
  _atom_site_label
  _atom_site_symmetry_multiplicity
  _atom_site_fract_x
  _atom_site_fract_y
  _atom_site_fract_z
  _atom_site_occupancy
  La  La1       1.0  0.6761519507990155  0.11440204917153007  0.517151937373173  1.0000
  La  La2       1.0  0.9664881368400611  0.8048067328876396  0.45208617978084564  1.0000
  La  La3       1.0  0.28838893283773004  0.23807423332021926  0.7458544537222807  1.0000
  La  La4       1.0  0.0689711182263224  0.842717070647673  0.7849074319286471  1.0000
