data_image0
_chemical_formula_structural       La4
_chemical_formula_sum              "La4"
_cell_length_a       3.79631058
_cell_length_b       3.7963124114957743
_cell_length_c       12.04125753
_cell_angle_alpha    90.0
_cell_angle_beta     90.0
_cell_angle_gamma    120.00000329189716

_space_group_name_H-M_alt    "P 1"
_space_group_IT_number       1

loop_
  _space_group_symop_operation_xyz
  'x, y, z'

loop_
  _atom_site_type_symbol
  _atom_site_label
  _atom_site_symmetry_multiplicity
  _atom_site_fract_x
  _atom_site_fract_y
  _atom_site_fract_z
  _atom_site_occupancy
  La  La1       1.0  0.0021120058264685326  0.28085262568095004  0.6059545894686948  1.0000
  La  La2       1.0  0.09746593515198931  0.6559419883414925  0.5996118392354813  1.0000
  La  La3       1.0  0.4077043655343321  0.9170791600368595  0.08411522219696899  1.0000
  La  La4       1.0  0.4927177478623541  0.14612621884059251  0.2103183403204456  1.0000
