data_image0
_chemical_formula_structural       La4
_chemical_formula_sum              "La4"
_cell_length_a       3.79631058
_cell_length_b       3.7963124114957743
_cell_length_c       12.04125753
_cell_angle_alpha    90.0
_cell_angle_beta     90.0
_cell_angle_gamma    120.00000329189716

_space_group_name_H-M_alt    "P 1"
_space_group_IT_number       1

loop_
  _space_group_symop_operation_xyz
  'x, y, z'

loop_
  _atom_site_type_symbol
  _atom_site_label
  _atom_site_symmetry_multiplicity
  _atom_site_fract_x
  _atom_site_fract_y
  _atom_site_fract_z
  _atom_site_occupancy
  La  La1       1.0  0.5575650052702184  0.3814827039984756  0.8875403095776369  1.0000
  La  La2       1.0  0.4395448955188783  0.5130803649420645  0.05338931845785976  1.0000
  La  La3       1.0  0.5856592503638314  0.5751527967160275  0.44816985429728096  1.0000
  La  La4       1.0  0.41723093427235014  0.530284148111626  0.11090051102574705  1.0000
