data_image0
_chemical_formula_structural       La4
_chemical_formula_sum              "La4"
_cell_length_a       3.79631058
_cell_length_b       3.7963124114957743
_cell_length_c       12.04125753
_cell_angle_alpha    90.0
_cell_angle_beta     90.0
_cell_angle_gamma    120.00000329189716

_space_group_name_H-M_alt    "P 1"
_space_group_IT_number       1

loop_
  _space_group_symop_operation_xyz
  'x, y, z'

loop_
  _atom_site_type_symbol
  _atom_site_label
  _atom_site_symmetry_multiplicity
  _atom_site_fract_x
  _atom_site_fract_y
  _atom_site_fract_z
  _atom_site_occupancy
  La  La1       1.0  0.2884074704995889  0.9556290319623848  0.2481783907466184  1.0000
  La  La2       1.0  0.3383110685752584  0.9504758469608277  0.8840768877664633  1.0000
  La  La3       1.0  0.9965805724881429  0.6112122327103773  0.5172397570735848  1.0000
  La  La4       1.0  0.3767008892683199  0.48268304791923633  0.8505050472381077  1.0000
