data_image0
_chemical_formula_structural       La4
_chemical_formula_sum              "La4"
_cell_length_a       3.79631058
_cell_length_b       3.7963124114957743
_cell_length_c       12.04125753
_cell_angle_alpha    90.0
_cell_angle_beta     90.0
_cell_angle_gamma    120.00000329189716

_space_group_name_H-M_alt    "P 1"
_space_group_IT_number       1

loop_
  _space_group_symop_operation_xyz
  'x, y, z'

loop_
  _atom_site_type_symbol
  _atom_site_label
  _atom_site_symmetry_multiplicity
  _atom_site_fract_x
  _atom_site_fract_y
  _atom_site_fract_z
  _atom_site_occupancy
  La  La1       1.0  0.00641886709096795  0.5768309731897041  0.08145472521849006  1.0000
  La  La2       1.0  0.0023265934460576787  0.2302001629021686  0.5330219755455323  1.0000
  La  La3       1.0  0.9246891852133174  0.22554912668004157  0.36142451978853707  1.0000
  La  La4       1.0  0.06656545559085059  0.9674198208150209  0.5240987664836387  1.0000
