data_image0
_chemical_formula_structural       La4
_chemical_formula_sum              "La4"
_cell_length_a       3.79631058
_cell_length_b       3.7963124114957743
_cell_length_c       12.04125753
_cell_angle_alpha    90.0
_cell_angle_beta     90.0
_cell_angle_gamma    120.00000329189716

_space_group_name_H-M_alt    "P 1"
_space_group_IT_number       1

loop_
  _space_group_symop_operation_xyz
  'x, y, z'

loop_
  _atom_site_type_symbol
  _atom_site_label
  _atom_site_symmetry_multiplicity
  _atom_site_fract_x
  _atom_site_fract_y
  _atom_site_fract_z
  _atom_site_occupancy
  La  La1       1.0  0.25836180364860084  0.6037026134269381  0.21480529046968044  1.0000
  La  La2       1.0  0.30382654445365187  0.39183165460907166  0.5706567860677338  1.0000
  La  La3       1.0  0.581928852012016  0.5148096315304116  0.11705823306693741  1.0000
  La  La4       1.0  0.8558829190891353  0.4896562057674849  0.5974796924645815  1.0000
