data_image0
_chemical_formula_structural       La4
_chemical_formula_sum              "La4"
_cell_length_a       3.79631058
_cell_length_b       3.7963124114957743
_cell_length_c       12.04125753
_cell_angle_alpha    90.0
_cell_angle_beta     90.0
_cell_angle_gamma    120.00000329189716

_space_group_name_H-M_alt    "P 1"
_space_group_IT_number       1

loop_
  _space_group_symop_operation_xyz
  'x, y, z'

loop_
  _atom_site_type_symbol
  _atom_site_label
  _atom_site_symmetry_multiplicity
  _atom_site_fract_x
  _atom_site_fract_y
  _atom_site_fract_z
  _atom_site_occupancy
  La  La1       1.0  0.2342444223484419  0.882689909365653  0.3778404254784551  1.0000
  La  La2       1.0  0.5115435507818447  0.02191165869339695  0.7990772105399717  1.0000
  La  La3       1.0  0.2103845702251146  0.5221126688728255  0.01359371973922352  1.0000
  La  La4       1.0  0.043827468904424904  0.5732858878454852  0.3094887274733935  1.0000
