data_image0
_chemical_formula_structural       La4
_chemical_formula_sum              "La4"
_cell_length_a       3.79631058
_cell_length_b       3.7963124114957743
_cell_length_c       12.04125753
_cell_angle_alpha    90.0
_cell_angle_beta     90.0
_cell_angle_gamma    120.00000329189716

_space_group_name_H-M_alt    "P 1"
_space_group_IT_number       1

loop_
  _space_group_symop_operation_xyz
  'x, y, z'

loop_
  _atom_site_type_symbol
  _atom_site_label
  _atom_site_symmetry_multiplicity
  _atom_site_fract_x
  _atom_site_fract_y
  _atom_site_fract_z
  _atom_site_occupancy
  La  La1       1.0  0.5595080389508524  0.5944311376707541  0.5962233426317409  1.0000
  La  La2       1.0  0.27610959733522833  0.27375914997637096  0.7074626308680418  1.0000
  La  La3       1.0  0.5067812746689828  0.8795122448825108  0.713744206092052  1.0000
  La  La4       1.0  0.6576012382767367  0.2522975776117029  0.48256982226749034  1.0000
