data_image0
_chemical_formula_structural       La4
_chemical_formula_sum              "La4"
_cell_length_a       3.79631058
_cell_length_b       3.7963124114957743
_cell_length_c       12.04125753
_cell_angle_alpha    90.0
_cell_angle_beta     90.0
_cell_angle_gamma    120.00000329189716

_space_group_name_H-M_alt    "P 1"
_space_group_IT_number       1

loop_
  _space_group_symop_operation_xyz
  'x, y, z'

loop_
  _atom_site_type_symbol
  _atom_site_label
  _atom_site_symmetry_multiplicity
  _atom_site_fract_x
  _atom_site_fract_y
  _atom_site_fract_z
  _atom_site_occupancy
  La  La1       1.0  0.7229044639415321  0.37073545666182817  0.3481360048669928  1.0000
  La  La2       1.0  0.13059215692036252  0.09851020831687318  0.06094185439635824  1.0000
  La  La3       1.0  0.4363203785136651  0.25695518289640007  0.6160482013214282  1.0000
  La  La4       1.0  0.7101829395043256  0.27379917386672403  0.474873971055946  1.0000
