data_image0
_chemical_formula_structural       La4
_chemical_formula_sum              "La4"
_cell_length_a       3.79631058
_cell_length_b       3.7963124114957743
_cell_length_c       12.04125753
_cell_angle_alpha    90.0
_cell_angle_beta     90.0
_cell_angle_gamma    120.00000329189716

_space_group_name_H-M_alt    "P 1"
_space_group_IT_number       1

loop_
  _space_group_symop_operation_xyz
  'x, y, z'

loop_
  _atom_site_type_symbol
  _atom_site_label
  _atom_site_symmetry_multiplicity
  _atom_site_fract_x
  _atom_site_fract_y
  _atom_site_fract_z
  _atom_site_occupancy
  La  La1       1.0  0.7921342535940639  0.6233550609230072  0.5266452670212889  1.0000
  La  La2       1.0  0.1526533230649605  0.9353964255000111  0.865486652452133  1.0000
  La  La3       1.0  0.69176175553444  0.6431534320453847  0.090104180269859  1.0000
  La  La4       1.0  0.3634507053921938  0.7980952685204272  0.017763986363661388  1.0000
