data_image0
_chemical_formula_structural       La4
_chemical_formula_sum              "La4"
_cell_length_a       3.79631058
_cell_length_b       3.7963124114957743
_cell_length_c       12.04125753
_cell_angle_alpha    90.0
_cell_angle_beta     90.0
_cell_angle_gamma    120.00000329189716

_space_group_name_H-M_alt    "P 1"
_space_group_IT_number       1

loop_
  _space_group_symop_operation_xyz
  'x, y, z'

loop_
  _atom_site_type_symbol
  _atom_site_label
  _atom_site_symmetry_multiplicity
  _atom_site_fract_x
  _atom_site_fract_y
  _atom_site_fract_z
  _atom_site_occupancy
  La  La1       1.0  0.4770427167951574  0.44086277277648733  0.16431295884844488  1.0000
  La  La2       1.0  0.10034873349256657  0.733055630423701  0.17534027924611717  1.0000
  La  La3       1.0  0.977498474461111  0.6157754980314332  0.3462712579042522  1.0000
  La  La4       1.0  0.4451100768929912  0.21030625395967206  0.8140755864093592  1.0000
