data_image0
_chemical_formula_structural       La4
_chemical_formula_sum              "La4"
_cell_length_a       3.79631058
_cell_length_b       3.7963124114957743
_cell_length_c       12.04125753
_cell_angle_alpha    90.0
_cell_angle_beta     90.0
_cell_angle_gamma    120.00000329189716

_space_group_name_H-M_alt    "P 1"
_space_group_IT_number       1

loop_
  _space_group_symop_operation_xyz
  'x, y, z'

loop_
  _atom_site_type_symbol
  _atom_site_label
  _atom_site_symmetry_multiplicity
  _atom_site_fract_x
  _atom_site_fract_y
  _atom_site_fract_z
  _atom_site_occupancy
  La  La1       1.0  0.8986362713926273  0.613746723765036  0.6780224752659545  1.0000
  La  La2       1.0  0.7458333456802915  0.17014492836115003  0.04526337466819763  1.0000
  La  La3       1.0  0.37417847157741413  0.07452666698867594  0.8427635055725897  1.0000
  La  La4       1.0  0.9813519158511741  0.14158166409400508  0.9339506485646549  1.0000
