data_image0
_chemical_formula_structural       La4
_chemical_formula_sum              "La4"
_cell_length_a       3.79631058
_cell_length_b       3.7963124114957743
_cell_length_c       12.04125753
_cell_angle_alpha    90.0
_cell_angle_beta     90.0
_cell_angle_gamma    120.00000329189716

_space_group_name_H-M_alt    "P 1"
_space_group_IT_number       1

loop_
  _space_group_symop_operation_xyz
  'x, y, z'

loop_
  _atom_site_type_symbol
  _atom_site_label
  _atom_site_symmetry_multiplicity
  _atom_site_fract_x
  _atom_site_fract_y
  _atom_site_fract_z
  _atom_site_occupancy
  La  La1       1.0  0.6035672505707255  0.9992967405472086  0.5477838372718917  1.0000
  La  La2       1.0  0.7900721297207097  0.5487377075055146  0.11347663161810218  1.0000
  La  La3       1.0  0.41285956444608374  0.8668517353394769  0.17047273497831641  1.0000
  La  La4       1.0  0.19350101559545863  0.5851139044574367  0.6682668406802628  1.0000
