data_image0
_chemical_formula_structural       La4
_chemical_formula_sum              "La4"
_cell_length_a       3.79631058
_cell_length_b       3.7963124114957743
_cell_length_c       12.04125753
_cell_angle_alpha    90.0
_cell_angle_beta     90.0
_cell_angle_gamma    120.00000329189716

_space_group_name_H-M_alt    "P 1"
_space_group_IT_number       1

loop_
  _space_group_symop_operation_xyz
  'x, y, z'

loop_
  _atom_site_type_symbol
  _atom_site_label
  _atom_site_symmetry_multiplicity
  _atom_site_fract_x
  _atom_site_fract_y
  _atom_site_fract_z
  _atom_site_occupancy
  La  La1       1.0  0.00016300849589034883  0.8201518653959354  0.2042062797133708  1.0000
  La  La2       1.0  0.4945574412480207  0.6109156933119637  0.14690756419081552  1.0000
  La  La3       1.0  0.7760123741850258  0.39402140966577015  0.9027923674537408  1.0000
  La  La4       1.0  0.7292670908623258  0.17491108184998794  0.24609383514790562  1.0000
