data_image0
_chemical_formula_structural       La4
_chemical_formula_sum              "La4"
_cell_length_a       3.79631058
_cell_length_b       3.7963124114957743
_cell_length_c       12.04125753
_cell_angle_alpha    90.0
_cell_angle_beta     90.0
_cell_angle_gamma    120.00000329189716

_space_group_name_H-M_alt    "P 1"
_space_group_IT_number       1

loop_
  _space_group_symop_operation_xyz
  'x, y, z'

loop_
  _atom_site_type_symbol
  _atom_site_label
  _atom_site_symmetry_multiplicity
  _atom_site_fract_x
  _atom_site_fract_y
  _atom_site_fract_z
  _atom_site_occupancy
  La  La1       1.0  0.5595296186892451  0.5329029128279705  0.9886693753562419  1.0000
  La  La2       1.0  0.9457495756816465  0.18011555620929798  0.46371920376772147  1.0000
  La  La3       1.0  0.6330221851794748  0.6156256608947781  0.14180243026238903  1.0000
  La  La4       1.0  0.8616986704262747  0.671356046190553  0.9058090546116233  1.0000
