data_image0
_chemical_formula_structural       La4
_chemical_formula_sum              "La4"
_cell_length_a       3.79631058
_cell_length_b       3.7963124114957743
_cell_length_c       12.04125753
_cell_angle_alpha    90.0
_cell_angle_beta     90.0
_cell_angle_gamma    120.00000329189716

_space_group_name_H-M_alt    "P 1"
_space_group_IT_number       1

loop_
  _space_group_symop_operation_xyz
  'x, y, z'

loop_
  _atom_site_type_symbol
  _atom_site_label
  _atom_site_symmetry_multiplicity
  _atom_site_fract_x
  _atom_site_fract_y
  _atom_site_fract_z
  _atom_site_occupancy
  La  La1       1.0  0.7116180282675604  0.5234624906059526  0.15559610421480663  1.0000
  La  La2       1.0  0.46185322267357154  0.5251007235117076  0.12338101010055702  1.0000
  La  La3       1.0  0.5479133350833099  0.7046125947738942  0.511496286126957  1.0000
  La  La4       1.0  0.27861548447361795  0.2468243645703314  0.7095266620996101  1.0000
