data_image0
_chemical_formula_structural       La4
_chemical_formula_sum              "La4"
_cell_length_a       3.79631058
_cell_length_b       3.7963124114957743
_cell_length_c       12.04125753
_cell_angle_alpha    90.0
_cell_angle_beta     90.0
_cell_angle_gamma    120.00000329189716

_space_group_name_H-M_alt    "P 1"
_space_group_IT_number       1

loop_
  _space_group_symop_operation_xyz
  'x, y, z'

loop_
  _atom_site_type_symbol
  _atom_site_label
  _atom_site_symmetry_multiplicity
  _atom_site_fract_x
  _atom_site_fract_y
  _atom_site_fract_z
  _atom_site_occupancy
  La  La1       1.0  0.1510052897613221  0.5480457586658254  0.9756647048801463  1.0000
  La  La2       1.0  0.6300926628081189  0.3925203472277152  0.4609529752078003  1.0000
  La  La3       1.0  0.5607089365935494  0.1914294524264335  0.09196055125040924  1.0000
  La  La4       1.0  0.658193025843584  0.8680044899776824  0.9714218168138591  1.0000
