data_image0
_chemical_formula_structural       La4
_chemical_formula_sum              "La4"
_cell_length_a       3.79631058
_cell_length_b       3.7963124114957743
_cell_length_c       12.04125753
_cell_angle_alpha    90.0
_cell_angle_beta     90.0
_cell_angle_gamma    120.00000329189716

_space_group_name_H-M_alt    "P 1"
_space_group_IT_number       1

loop_
  _space_group_symop_operation_xyz
  'x, y, z'

loop_
  _atom_site_type_symbol
  _atom_site_label
  _atom_site_symmetry_multiplicity
  _atom_site_fract_x
  _atom_site_fract_y
  _atom_site_fract_z
  _atom_site_occupancy
  La  La1       1.0  0.11042338624369563  0.2860504224196254  0.5624060238196948  1.0000
  La  La2       1.0  0.333873985129026  0.9010385997758821  0.9326042465148983  1.0000
  La  La3       1.0  0.590968341287347  0.6840123343046507  0.23255529595209934  1.0000
  La  La4       1.0  0.9647344208067796  0.1288987551293701  0.7724344366945024  1.0000
