data_image0
_chemical_formula_structural       La4
_chemical_formula_sum              "La4"
_cell_length_a       3.79631058
_cell_length_b       3.7963124114957743
_cell_length_c       12.04125753
_cell_angle_alpha    90.0
_cell_angle_beta     90.0
_cell_angle_gamma    120.00000329189716

_space_group_name_H-M_alt    "P 1"
_space_group_IT_number       1

loop_
  _space_group_symop_operation_xyz
  'x, y, z'

loop_
  _atom_site_type_symbol
  _atom_site_label
  _atom_site_symmetry_multiplicity
  _atom_site_fract_x
  _atom_site_fract_y
  _atom_site_fract_z
  _atom_site_occupancy
  La  La1       1.0  0.39124014559151865  0.6380065715719496  0.2159115019231841  1.0000
  La  La2       1.0  0.6837177930003486  0.7335847318422442  0.22203161909043298  1.0000
  La  La3       1.0  0.44161344255894974  0.07825650100508419  0.8092719653314926  1.0000
  La  La4       1.0  0.48342859725698517  0.5501522890435488  0.2527849613111526  1.0000
