data_image0
_chemical_formula_structural       La4
_chemical_formula_sum              "La4"
_cell_length_a       3.79631058
_cell_length_b       3.7963124114957743
_cell_length_c       12.04125753
_cell_angle_alpha    90.0
_cell_angle_beta     90.0
_cell_angle_gamma    120.00000329189716

_space_group_name_H-M_alt    "P 1"
_space_group_IT_number       1

loop_
  _space_group_symop_operation_xyz
  'x, y, z'

loop_
  _atom_site_type_symbol
  _atom_site_label
  _atom_site_symmetry_multiplicity
  _atom_site_fract_x
  _atom_site_fract_y
  _atom_site_fract_z
  _atom_site_occupancy
  La  La1       1.0  0.7505701033940841  0.4160322709344726  0.2502720690433824  1.0000
  La  La2       1.0  0.7653895976120721  0.6772559639705009  0.19826504470217698  1.0000
  La  La3       1.0  0.21686968096272816  0.06317499720798514  0.6572715484424148  1.0000
  La  La4       1.0  0.26717067939434  0.8435369321237811  0.3941913970749997  1.0000
