data_image0
_chemical_formula_structural       La4
_chemical_formula_sum              "La4"
_cell_length_a       3.79631058
_cell_length_b       3.7963124114957743
_cell_length_c       12.04125753
_cell_angle_alpha    90.0
_cell_angle_beta     90.0
_cell_angle_gamma    120.00000329189716

_space_group_name_H-M_alt    "P 1"
_space_group_IT_number       1

loop_
  _space_group_symop_operation_xyz
  'x, y, z'

loop_
  _atom_site_type_symbol
  _atom_site_label
  _atom_site_symmetry_multiplicity
  _atom_site_fract_x
  _atom_site_fract_y
  _atom_site_fract_z
  _atom_site_occupancy
  La  La1       1.0  0.19554131623444526  0.6604000050509147  0.9529478279331931  1.0000
  La  La2       1.0  0.9724153562943649  0.7524268279496704  0.35352333436403205  1.0000
  La  La3       1.0  0.24382246383427653  0.30179978133808394  0.458935831080598  1.0000
  La  La4       1.0  0.5882208547729135  0.28537335148769216  0.7345930097809799  1.0000
