data_image0
_chemical_formula_structural       La4
_chemical_formula_sum              "La4"
_cell_length_a       3.79631058
_cell_length_b       3.7963124114957743
_cell_length_c       12.04125753
_cell_angle_alpha    90.0
_cell_angle_beta     90.0
_cell_angle_gamma    120.00000329189716

_space_group_name_H-M_alt    "P 1"
_space_group_IT_number       1

loop_
  _space_group_symop_operation_xyz
  'x, y, z'

loop_
  _atom_site_type_symbol
  _atom_site_label
  _atom_site_symmetry_multiplicity
  _atom_site_fract_x
  _atom_site_fract_y
  _atom_site_fract_z
  _atom_site_occupancy
  La  La1       1.0  0.8600636107837243  0.6147796625483504  0.6521073725766735  1.0000
  La  La2       1.0  0.3751739272548189  0.8281950268506186  0.5511582243297692  1.0000
  La  La3       1.0  0.1289408070361766  0.8719027319572348  0.5812027170100569  1.0000
  La  La4       1.0  0.6358218030459799  0.6851226912374351  0.7155316885150347  1.0000
