data_image0
_chemical_formula_structural       La4
_chemical_formula_sum              "La4"
_cell_length_a       3.79631058
_cell_length_b       3.7963124114957743
_cell_length_c       12.04125753
_cell_angle_alpha    90.0
_cell_angle_beta     90.0
_cell_angle_gamma    120.00000329189716

_space_group_name_H-M_alt    "P 1"
_space_group_IT_number       1

loop_
  _space_group_symop_operation_xyz
  'x, y, z'

loop_
  _atom_site_type_symbol
  _atom_site_label
  _atom_site_symmetry_multiplicity
  _atom_site_fract_x
  _atom_site_fract_y
  _atom_site_fract_z
  _atom_site_occupancy
  La  La1       1.0  0.7810192819315471  0.08580623870853676  0.5378005544749196  1.0000
  La  La2       1.0  0.5069188483837532  0.282625319979638  0.9585945921828014  1.0000
  La  La3       1.0  0.5085199167564678  0.5299226587437222  0.8177591454179907  1.0000
  La  La4       1.0  0.20354195923985863  0.10164577053758528  0.18584571171891406  1.0000
