data_image0
_chemical_formula_structural       La4
_chemical_formula_sum              "La4"
_cell_length_a       3.79631058
_cell_length_b       3.7963124114957743
_cell_length_c       12.04125753
_cell_angle_alpha    90.0
_cell_angle_beta     90.0
_cell_angle_gamma    120.00000329189716

_space_group_name_H-M_alt    "P 1"
_space_group_IT_number       1

loop_
  _space_group_symop_operation_xyz
  'x, y, z'

loop_
  _atom_site_type_symbol
  _atom_site_label
  _atom_site_symmetry_multiplicity
  _atom_site_fract_x
  _atom_site_fract_y
  _atom_site_fract_z
  _atom_site_occupancy
  La  La1       1.0  0.611600572737204  0.24786247373806525  0.5566692620885432  1.0000
  La  La2       1.0  0.7104523191940775  0.7500261244089508  0.8173758482514031  1.0000
  La  La3       1.0  0.219520258343759  0.348550234866428  0.1601484502879793  1.0000
  La  La4       1.0  0.4584268744484472  0.6535611521884519  0.9658064418507164  1.0000
