data_image0
_chemical_formula_structural       La4
_chemical_formula_sum              "La4"
_cell_length_a       3.79631058
_cell_length_b       3.7963124114957743
_cell_length_c       12.04125753
_cell_angle_alpha    90.0
_cell_angle_beta     90.0
_cell_angle_gamma    120.00000329189716

_space_group_name_H-M_alt    "P 1"
_space_group_IT_number       1

loop_
  _space_group_symop_operation_xyz
  'x, y, z'

loop_
  _atom_site_type_symbol
  _atom_site_label
  _atom_site_symmetry_multiplicity
  _atom_site_fract_x
  _atom_site_fract_y
  _atom_site_fract_z
  _atom_site_occupancy
  La  La1       1.0  0.7284204504082252  0.1434217359583648  0.6798033991142995  1.0000
  La  La2       1.0  0.8373758368364026  0.5171133345334287  0.048428255106502505  1.0000
  La  La3       1.0  0.3436921107764659  0.051246396487908186  0.9184730222167659  1.0000
  La  La4       1.0  0.09051163167486465  0.2882185213065682  0.8532953139495849  1.0000
