data_image0
_chemical_formula_structural       La4
_chemical_formula_sum              "La4"
_cell_length_a       3.79631058
_cell_length_b       3.7963124114957743
_cell_length_c       12.04125753
_cell_angle_alpha    90.0
_cell_angle_beta     90.0
_cell_angle_gamma    120.00000329189716

_space_group_name_H-M_alt    "P 1"
_space_group_IT_number       1

loop_
  _space_group_symop_operation_xyz
  'x, y, z'

loop_
  _atom_site_type_symbol
  _atom_site_label
  _atom_site_symmetry_multiplicity
  _atom_site_fract_x
  _atom_site_fract_y
  _atom_site_fract_z
  _atom_site_occupancy
  La  La1       1.0  0.9240104395628332  0.4334049806836333  0.9550789583794357  1.0000
  La  La2       1.0  0.8845980519280134  0.4378548188373921  0.3862087962755283  1.0000
  La  La3       1.0  0.2847943993873203  0.6595184705781781  0.076679150154491  1.0000
  La  La4       1.0  0.9065971688009942  0.4692218879295176  0.08203314864740996  1.0000
