data_image0
_chemical_formula_structural       La4
_chemical_formula_sum              "La4"
_cell_length_a       3.79631058
_cell_length_b       3.7963124114957743
_cell_length_c       12.04125753
_cell_angle_alpha    90.0
_cell_angle_beta     90.0
_cell_angle_gamma    120.00000329189716

_space_group_name_H-M_alt    "P 1"
_space_group_IT_number       1

loop_
  _space_group_symop_operation_xyz
  'x, y, z'

loop_
  _atom_site_type_symbol
  _atom_site_label
  _atom_site_symmetry_multiplicity
  _atom_site_fract_x
  _atom_site_fract_y
  _atom_site_fract_z
  _atom_site_occupancy
  La  La1       1.0  0.8254206693017885  0.17638617420546399  0.8352722783314213  1.0000
  La  La2       1.0  0.06451079459117448  0.6808261154435824  0.6717003274369682  1.0000
  La  La3       1.0  0.9563368542416057  0.3341917348136505  0.2187189184438083  1.0000
  La  La4       1.0  0.15373179519930336  0.8085960792499911  0.7743084664853725  1.0000
