data_image0
_chemical_formula_structural       La4
_chemical_formula_sum              "La4"
_cell_length_a       3.79631058
_cell_length_b       3.7963124114957743
_cell_length_c       12.04125753
_cell_angle_alpha    90.0
_cell_angle_beta     90.0
_cell_angle_gamma    120.00000329189716

_space_group_name_H-M_alt    "P 1"
_space_group_IT_number       1

loop_
  _space_group_symop_operation_xyz
  'x, y, z'

loop_
  _atom_site_type_symbol
  _atom_site_label
  _atom_site_symmetry_multiplicity
  _atom_site_fract_x
  _atom_site_fract_y
  _atom_site_fract_z
  _atom_site_occupancy
  La  La1       1.0  0.8779030566276376  0.8264633230540976  0.7725750866838617  1.0000
  La  La2       1.0  0.9082401061491305  0.05471118214503967  0.37426578183234166  1.0000
  La  La3       1.0  0.01733586662251385  0.8018645188339129  0.5270475319855907  1.0000
  La  La4       1.0  0.19652104182581098  0.3169609800215625  0.8261115916158479  1.0000
