data_image0
_chemical_formula_structural       La4
_chemical_formula_sum              "La4"
_cell_length_a       3.79631058
_cell_length_b       3.7963124114957743
_cell_length_c       12.04125753
_cell_angle_alpha    90.0
_cell_angle_beta     90.0
_cell_angle_gamma    120.00000329189716

_space_group_name_H-M_alt    "P 1"
_space_group_IT_number       1

loop_
  _space_group_symop_operation_xyz
  'x, y, z'

loop_
  _atom_site_type_symbol
  _atom_site_label
  _atom_site_symmetry_multiplicity
  _atom_site_fract_x
  _atom_site_fract_y
  _atom_site_fract_z
  _atom_site_occupancy
  La  La1       1.0  0.853006043552746  0.03211839603838662  0.9211271988208649  1.0000
  La  La2       1.0  0.7178745326675626  0.6478359207021067  0.4839548855001099  1.0000
  La  La3       1.0  0.9255823195863249  0.43109331500913317  0.2658066758458819  1.0000
  La  La4       1.0  0.5035370929719836  0.8889523334316296  0.8291112423184577  1.0000
