data_image0
_chemical_formula_structural       La4
_chemical_formula_sum              "La4"
_cell_length_a       3.79631058
_cell_length_b       3.7963124114957743
_cell_length_c       12.04125753
_cell_angle_alpha    90.0
_cell_angle_beta     90.0
_cell_angle_gamma    120.00000329189716

_space_group_name_H-M_alt    "P 1"
_space_group_IT_number       1

loop_
  _space_group_symop_operation_xyz
  'x, y, z'

loop_
  _atom_site_type_symbol
  _atom_site_label
  _atom_site_symmetry_multiplicity
  _atom_site_fract_x
  _atom_site_fract_y
  _atom_site_fract_z
  _atom_site_occupancy
  La  La1       1.0  0.3595382179087592  0.608586313873186  0.26719134347396123  1.0000
  La  La2       1.0  0.6090559861723843  0.5262929289628113  0.35998901025329477  1.0000
  La  La3       1.0  0.06213724614696581  0.1355829236036552  0.22272187094040408  1.0000
  La  La4       1.0  0.9692684662473212  0.7295378893330202  0.6500978209183947  1.0000
