data_image0
_chemical_formula_structural       La4
_chemical_formula_sum              "La4"
_cell_length_a       3.79631058
_cell_length_b       3.7963124114957743
_cell_length_c       12.04125753
_cell_angle_alpha    90.0
_cell_angle_beta     90.0
_cell_angle_gamma    120.00000329189716

_space_group_name_H-M_alt    "P 1"
_space_group_IT_number       1

loop_
  _space_group_symop_operation_xyz
  'x, y, z'

loop_
  _atom_site_type_symbol
  _atom_site_label
  _atom_site_symmetry_multiplicity
  _atom_site_fract_x
  _atom_site_fract_y
  _atom_site_fract_z
  _atom_site_occupancy
  La  La1       1.0  0.5131637054449403  0.8193341937794187  0.6850608635470445  1.0000
  La  La2       1.0  0.9602642717024574  0.37001728986168025  0.42948044765338983  1.0000
  La  La3       1.0  0.8450268585715115  0.38010766315294475  0.7270832934119098  1.0000
  La  La4       1.0  0.6815452317833959  0.4305408544158169  0.6583753871187867  1.0000
