data_image0
_chemical_formula_structural       La4
_chemical_formula_sum              "La4"
_cell_length_a       3.79631058
_cell_length_b       3.7963124114957743
_cell_length_c       12.04125753
_cell_angle_alpha    90.0
_cell_angle_beta     90.0
_cell_angle_gamma    120.00000329189716

_space_group_name_H-M_alt    "P 1"
_space_group_IT_number       1

loop_
  _space_group_symop_operation_xyz
  'x, y, z'

loop_
  _atom_site_type_symbol
  _atom_site_label
  _atom_site_symmetry_multiplicity
  _atom_site_fract_x
  _atom_site_fract_y
  _atom_site_fract_z
  _atom_site_occupancy
  La  La1       1.0  0.18285723534953657  0.6686655267557958  0.33870048324295254  1.0000
  La  La2       1.0  0.07782116730729527  0.10171781028673088  0.8905933505936385  1.0000
  La  La3       1.0  0.7810635105447794  0.9086249902438055  0.15101450389201831  1.0000
  La  La4       1.0  0.9582580985447091  0.3209917945766805  0.11969174505034363  1.0000
