data_image0
_chemical_formula_structural       La4
_chemical_formula_sum              "La4"
_cell_length_a       3.79631058
_cell_length_b       3.7963124114957743
_cell_length_c       12.04125753
_cell_angle_alpha    90.0
_cell_angle_beta     90.0
_cell_angle_gamma    120.00000329189716

_space_group_name_H-M_alt    "P 1"
_space_group_IT_number       1

loop_
  _space_group_symop_operation_xyz
  'x, y, z'

loop_
  _atom_site_type_symbol
  _atom_site_label
  _atom_site_symmetry_multiplicity
  _atom_site_fract_x
  _atom_site_fract_y
  _atom_site_fract_z
  _atom_site_occupancy
  La  La1       1.0  0.3921803445416767  0.24021478532619334  0.2849479260801151  1.0000
  La  La2       1.0  0.8435856043290442  0.9712132050397128  0.8505605213940964  1.0000
  La  La3       1.0  0.23706331589327245  0.3606862097643444  0.038228501706598195  1.0000
  La  La4       1.0  0.5271707414637143  0.4278858045944336  0.32626304969283626  1.0000
