data_image0
_chemical_formula_structural       La4
_chemical_formula_sum              "La4"
_cell_length_a       3.79631058
_cell_length_b       3.7963124114957743
_cell_length_c       12.04125753
_cell_angle_alpha    90.0
_cell_angle_beta     90.0
_cell_angle_gamma    120.00000329189716

_space_group_name_H-M_alt    "P 1"
_space_group_IT_number       1

loop_
  _space_group_symop_operation_xyz
  'x, y, z'

loop_
  _atom_site_type_symbol
  _atom_site_label
  _atom_site_symmetry_multiplicity
  _atom_site_fract_x
  _atom_site_fract_y
  _atom_site_fract_z
  _atom_site_occupancy
  La  La1       1.0  0.24444708420900696  0.4354932920862256  0.7238094388667382  1.0000
  La  La2       1.0  0.4320837882553725  0.3858190823151668  0.486738191167857  1.0000
  La  La3       1.0  0.941305434323322  0.9631123540546227  0.12234703985421636  1.0000
  La  La4       1.0  0.38216378410926044  0.21557536323826554  0.16710533276418804  1.0000
