data_image0
_chemical_formula_structural       La4
_chemical_formula_sum              "La4"
_cell_length_a       3.79631058
_cell_length_b       3.7963124114957743
_cell_length_c       12.04125753
_cell_angle_alpha    90.0
_cell_angle_beta     90.0
_cell_angle_gamma    120.00000329189716

_space_group_name_H-M_alt    "P 1"
_space_group_IT_number       1

loop_
  _space_group_symop_operation_xyz
  'x, y, z'

loop_
  _atom_site_type_symbol
  _atom_site_label
  _atom_site_symmetry_multiplicity
  _atom_site_fract_x
  _atom_site_fract_y
  _atom_site_fract_z
  _atom_site_occupancy
  La  La1       1.0  0.11174481629445054  0.4882247934272854  0.2569244674547564  1.0000
  La  La2       1.0  0.27857554753870595  0.7982105052347128  0.805446567866001  1.0000
  La  La3       1.0  0.8254411365096272  0.11815885341790633  0.980357000560276  1.0000
  La  La4       1.0  0.7842385042883917  0.5954058519838696  0.4572719627188415  1.0000
