data_image0
_chemical_formula_structural       La4
_chemical_formula_sum              "La4"
_cell_length_a       3.79631058
_cell_length_b       3.7963124114957743
_cell_length_c       12.04125753
_cell_angle_alpha    90.0
_cell_angle_beta     90.0
_cell_angle_gamma    120.00000329189716

_space_group_name_H-M_alt    "P 1"
_space_group_IT_number       1

loop_
  _space_group_symop_operation_xyz
  'x, y, z'

loop_
  _atom_site_type_symbol
  _atom_site_label
  _atom_site_symmetry_multiplicity
  _atom_site_fract_x
  _atom_site_fract_y
  _atom_site_fract_z
  _atom_site_occupancy
  La  La1       1.0  0.13597243264078607  0.6136143999655497  0.8954784965658193  1.0000
  La  La2       1.0  0.18801830889085558  0.6301644499124173  0.242800083708127  1.0000
  La  La3       1.0  0.1316602890084256  0.8037555297962662  0.7122700564883604  1.0000
  La  La4       1.0  0.5443489996026933  0.952465601592543  0.6494513538322688  1.0000
