data_image0
_chemical_formula_structural       La4
_chemical_formula_sum              "La4"
_cell_length_a       3.79631058
_cell_length_b       3.7963124114957743
_cell_length_c       12.04125753
_cell_angle_alpha    90.0
_cell_angle_beta     90.0
_cell_angle_gamma    120.00000329189716

_space_group_name_H-M_alt    "P 1"
_space_group_IT_number       1

loop_
  _space_group_symop_operation_xyz
  'x, y, z'

loop_
  _atom_site_type_symbol
  _atom_site_label
  _atom_site_symmetry_multiplicity
  _atom_site_fract_x
  _atom_site_fract_y
  _atom_site_fract_z
  _atom_site_occupancy
  La  La1       1.0  0.7418307852273065  0.3876162381162285  0.019189562059708454  1.0000
  La  La2       1.0  0.14302443854965174  0.7170472495508378  0.18076235243819536  1.0000
  La  La3       1.0  0.24477773783983636  0.7450557422296642  0.3490827676095889  1.0000
  La  La4       1.0  0.8703670391510663  0.15028086818088227  0.9509653677115724  1.0000
