data_image0
_chemical_formula_structural       La4
_chemical_formula_sum              "La4"
_cell_length_a       3.79631058
_cell_length_b       3.7963124114957743
_cell_length_c       12.04125753
_cell_angle_alpha    90.0
_cell_angle_beta     90.0
_cell_angle_gamma    120.00000329189716

_space_group_name_H-M_alt    "P 1"
_space_group_IT_number       1

loop_
  _space_group_symop_operation_xyz
  'x, y, z'

loop_
  _atom_site_type_symbol
  _atom_site_label
  _atom_site_symmetry_multiplicity
  _atom_site_fract_x
  _atom_site_fract_y
  _atom_site_fract_z
  _atom_site_occupancy
  La  La1       1.0  0.5875603444408863  0.7570192143535408  0.8680895213426894  1.0000
  La  La2       1.0  0.5189823881464406  0.0767606421387299  0.11922367123793665  1.0000
  La  La3       1.0  0.37169588025443634  0.6267070568526814  0.6729307375114966  1.0000
  La  La4       1.0  0.5217614126987993  0.5395132639342854  0.8397561526131057  1.0000
