data_image0
_chemical_formula_structural       La4
_chemical_formula_sum              "La4"
_cell_length_a       3.79631058
_cell_length_b       3.7963124114957743
_cell_length_c       12.04125753
_cell_angle_alpha    90.0
_cell_angle_beta     90.0
_cell_angle_gamma    120.00000329189716

_space_group_name_H-M_alt    "P 1"
_space_group_IT_number       1

loop_
  _space_group_symop_operation_xyz
  'x, y, z'

loop_
  _atom_site_type_symbol
  _atom_site_label
  _atom_site_symmetry_multiplicity
  _atom_site_fract_x
  _atom_site_fract_y
  _atom_site_fract_z
  _atom_site_occupancy
  La  La1       1.0  0.09611148955099047  0.37069305797184526  0.5727870292240933  1.0000
  La  La2       1.0  0.2594937728331921  0.7911779777977479  0.9536885633126779  1.0000
  La  La3       1.0  0.6096084974444249  0.34786431908930293  0.9264824864088044  1.0000
  La  La4       1.0  0.034786271235585975  0.49026483366621854  0.04704200598614072  1.0000
