data_image0
_chemical_formula_structural       La4
_chemical_formula_sum              "La4"
_cell_length_a       3.79631058
_cell_length_b       3.7963124114957743
_cell_length_c       12.04125753
_cell_angle_alpha    90.0
_cell_angle_beta     90.0
_cell_angle_gamma    120.00000329189716

_space_group_name_H-M_alt    "P 1"
_space_group_IT_number       1

loop_
  _space_group_symop_operation_xyz
  'x, y, z'

loop_
  _atom_site_type_symbol
  _atom_site_label
  _atom_site_symmetry_multiplicity
  _atom_site_fract_x
  _atom_site_fract_y
  _atom_site_fract_z
  _atom_site_occupancy
  La  La1       1.0  0.9096140584222514  0.11825935330316284  0.6618911559007623  1.0000
  La  La2       1.0  0.6087738142174715  0.6151130709084325  0.6121348581818694  1.0000
  La  La3       1.0  0.7729922899733941  0.5350901795946807  0.9499027910773927  1.0000
  La  La4       1.0  0.7086198856558354  0.7315375280672498  0.2760712439810957  1.0000
