data_image0
_chemical_formula_structural       La4
_chemical_formula_sum              "La4"
_cell_length_a       3.79631058
_cell_length_b       3.7963124114957743
_cell_length_c       12.04125753
_cell_angle_alpha    90.0
_cell_angle_beta     90.0
_cell_angle_gamma    120.00000329189716

_space_group_name_H-M_alt    "P 1"
_space_group_IT_number       1

loop_
  _space_group_symop_operation_xyz
  'x, y, z'

loop_
  _atom_site_type_symbol
  _atom_site_label
  _atom_site_symmetry_multiplicity
  _atom_site_fract_x
  _atom_site_fract_y
  _atom_site_fract_z
  _atom_site_occupancy
  La  La1       1.0  0.7970289166581734  0.8411655457162821  0.6609432708330623  1.0000
  La  La2       1.0  0.7820894607613127  0.312386617334635  0.7491798970620556  1.0000
  La  La3       1.0  0.9496410973693807  0.4687960384503125  0.3610746069155675  1.0000
  La  La4       1.0  0.4712405683706251  0.37765196931284706  0.7288023059627697  1.0000
