data_image0
_chemical_formula_structural       La4
_chemical_formula_sum              "La4"
_cell_length_a       3.79631058
_cell_length_b       3.7963124114957743
_cell_length_c       12.04125753
_cell_angle_alpha    90.0
_cell_angle_beta     90.0
_cell_angle_gamma    120.00000329189716

_space_group_name_H-M_alt    "P 1"
_space_group_IT_number       1

loop_
  _space_group_symop_operation_xyz
  'x, y, z'

loop_
  _atom_site_type_symbol
  _atom_site_label
  _atom_site_symmetry_multiplicity
  _atom_site_fract_x
  _atom_site_fract_y
  _atom_site_fract_z
  _atom_site_occupancy
  La  La1       1.0  0.5510318086684567  0.2518557396356961  0.3428670014519919  1.0000
  La  La2       1.0  0.7635403241078302  0.43137142526458394  0.27776036585693964  1.0000
  La  La3       1.0  0.9514218313639731  0.5501104527308733  0.47538652425027506  1.0000
  La  La4       1.0  0.7340061177404564  0.7666624515990783  0.40398610662874823  1.0000
