data_image0
_chemical_formula_structural       La4
_chemical_formula_sum              "La4"
_cell_length_a       3.79631058
_cell_length_b       3.7963124114957743
_cell_length_c       12.04125753
_cell_angle_alpha    90.0
_cell_angle_beta     90.0
_cell_angle_gamma    120.00000329189716

_space_group_name_H-M_alt    "P 1"
_space_group_IT_number       1

loop_
  _space_group_symop_operation_xyz
  'x, y, z'

loop_
  _atom_site_type_symbol
  _atom_site_label
  _atom_site_symmetry_multiplicity
  _atom_site_fract_x
  _atom_site_fract_y
  _atom_site_fract_z
  _atom_site_occupancy
  La  La1       1.0  0.7667587089250016  0.6781989798754531  0.7418796352572086  1.0000
  La  La2       1.0  0.28216364393690707  0.10312843785790893  0.1532618538782624  1.0000
  La  La3       1.0  0.2946054816232184  0.16313722761535843  0.8762542135935214  1.0000
  La  La4       1.0  0.6564722818343782  0.05553545435579821  0.7286042887257373  1.0000
