data_image0
_chemical_formula_structural       La4
_chemical_formula_sum              "La4"
_cell_length_a       3.79631058
_cell_length_b       3.7963124114957743
_cell_length_c       12.04125753
_cell_angle_alpha    90.0
_cell_angle_beta     90.0
_cell_angle_gamma    120.00000329189716

_space_group_name_H-M_alt    "P 1"
_space_group_IT_number       1

loop_
  _space_group_symop_operation_xyz
  'x, y, z'

loop_
  _atom_site_type_symbol
  _atom_site_label
  _atom_site_symmetry_multiplicity
  _atom_site_fract_x
  _atom_site_fract_y
  _atom_site_fract_z
  _atom_site_occupancy
  La  La1       1.0  0.4023711145266162  0.9286938483040323  0.8561227420707205  1.0000
  La  La2       1.0  0.1417152814283762  0.6664140252659365  0.04202338413504236  1.0000
  La  La3       1.0  0.8510063371245364  0.4006388513695711  0.24051115420140334  1.0000
  La  La4       1.0  0.6049073030367964  0.00425325680001265  0.36134270973688176  1.0000
