data_image0
_chemical_formula_structural       La4
_chemical_formula_sum              "La4"
_cell_length_a       3.79631058
_cell_length_b       3.7963124114957743
_cell_length_c       12.04125753
_cell_angle_alpha    90.0
_cell_angle_beta     90.0
_cell_angle_gamma    120.00000329189716

_space_group_name_H-M_alt    "P 1"
_space_group_IT_number       1

loop_
  _space_group_symop_operation_xyz
  'x, y, z'

loop_
  _atom_site_type_symbol
  _atom_site_label
  _atom_site_symmetry_multiplicity
  _atom_site_fract_x
  _atom_site_fract_y
  _atom_site_fract_z
  _atom_site_occupancy
  La  La1       1.0  0.24987647165948346  0.6870762877581882  0.5066973184356431  1.0000
  La  La2       1.0  0.9610630224991858  0.9575868036292619  0.8439453229139251  1.0000
  La  La3       1.0  0.2720754475022309  0.48719346864245283  0.9830318701843686  1.0000
  La  La4       1.0  0.516985093720558  0.8681436272972967  0.16632557449183416  1.0000
