data_image0
_chemical_formula_structural       La4
_chemical_formula_sum              "La4"
_cell_length_a       3.79631058
_cell_length_b       3.7963124114957743
_cell_length_c       12.04125753
_cell_angle_alpha    90.0
_cell_angle_beta     90.0
_cell_angle_gamma    120.00000329189716

_space_group_name_H-M_alt    "P 1"
_space_group_IT_number       1

loop_
  _space_group_symop_operation_xyz
  'x, y, z'

loop_
  _atom_site_type_symbol
  _atom_site_label
  _atom_site_symmetry_multiplicity
  _atom_site_fract_x
  _atom_site_fract_y
  _atom_site_fract_z
  _atom_site_occupancy
  La  La1       1.0  0.41183793557877557  0.15895366387657628  0.6633909634956172  1.0000
  La  La2       1.0  0.09951255272679482  0.11728221286026042  0.9834644069259109  1.0000
  La  La3       1.0  0.1738147206094497  0.6554917534844833  0.842441788289634  1.0000
  La  La4       1.0  0.3148348206185183  0.06827235728599845  0.010702831665451829  1.0000
