data_image0
_chemical_formula_structural       La4
_chemical_formula_sum              "La4"
_cell_length_a       3.79631058
_cell_length_b       3.7963124114957743
_cell_length_c       12.04125753
_cell_angle_alpha    90.0
_cell_angle_beta     90.0
_cell_angle_gamma    120.00000329189716

_space_group_name_H-M_alt    "P 1"
_space_group_IT_number       1

loop_
  _space_group_symop_operation_xyz
  'x, y, z'

loop_
  _atom_site_type_symbol
  _atom_site_label
  _atom_site_symmetry_multiplicity
  _atom_site_fract_x
  _atom_site_fract_y
  _atom_site_fract_z
  _atom_site_occupancy
  La  La1       1.0  0.8687954770042357  0.6738777720118918  0.8186823767163318  1.0000
  La  La2       1.0  0.27899354122903475  0.6857796497167357  0.2317500503834117  1.0000
  La  La3       1.0  0.8515272473234506  0.27425999319557093  0.41809785325245086  1.0000
  La  La4       1.0  0.0006838111229114929  0.36608259423822886  0.03146971240245833  1.0000
