data_image0
_chemical_formula_structural       La4
_chemical_formula_sum              "La4"
_cell_length_a       3.79631058
_cell_length_b       3.7963124114957743
_cell_length_c       12.04125753
_cell_angle_alpha    90.0
_cell_angle_beta     90.0
_cell_angle_gamma    120.00000329189716

_space_group_name_H-M_alt    "P 1"
_space_group_IT_number       1

loop_
  _space_group_symop_operation_xyz
  'x, y, z'

loop_
  _atom_site_type_symbol
  _atom_site_label
  _atom_site_symmetry_multiplicity
  _atom_site_fract_x
  _atom_site_fract_y
  _atom_site_fract_z
  _atom_site_occupancy
  La  La1       1.0  0.8528187045993878  0.3217730346675314  0.3561344297506026  1.0000
  La  La2       1.0  0.9524367794988131  0.7987411160414166  0.6846724768236232  1.0000
  La  La3       1.0  0.9011242719749379  0.8286699025658881  0.35631625809465817  1.0000
  La  La4       1.0  0.2936202698606092  0.05081594938197398  0.10287683741400688  1.0000
