data_image0
_chemical_formula_structural       La4
_chemical_formula_sum              "La4"
_cell_length_a       3.79631058
_cell_length_b       3.7963124114957743
_cell_length_c       12.04125753
_cell_angle_alpha    90.0
_cell_angle_beta     90.0
_cell_angle_gamma    120.00000329189716

_space_group_name_H-M_alt    "P 1"
_space_group_IT_number       1

loop_
  _space_group_symop_operation_xyz
  'x, y, z'

loop_
  _atom_site_type_symbol
  _atom_site_label
  _atom_site_symmetry_multiplicity
  _atom_site_fract_x
  _atom_site_fract_y
  _atom_site_fract_z
  _atom_site_occupancy
  La  La1       1.0  0.6947710350600986  0.18295448165539874  0.4451456788362744  1.0000
  La  La2       1.0  0.938675626199525  0.2135699555234991  0.11003299407777312  1.0000
  La  La3       1.0  0.6448665128101254  0.018015853065332266  0.14542318399362067  1.0000
  La  La4       1.0  0.7216867962569928  0.5854598021611146  0.7993981882376766  1.0000
