data_image0
_chemical_formula_structural       La4
_chemical_formula_sum              "La4"
_cell_length_a       3.79631058
_cell_length_b       3.7963124114957743
_cell_length_c       12.04125753
_cell_angle_alpha    90.0
_cell_angle_beta     90.0
_cell_angle_gamma    120.00000329189716

_space_group_name_H-M_alt    "P 1"
_space_group_IT_number       1

loop_
  _space_group_symop_operation_xyz
  'x, y, z'

loop_
  _atom_site_type_symbol
  _atom_site_label
  _atom_site_symmetry_multiplicity
  _atom_site_fract_x
  _atom_site_fract_y
  _atom_site_fract_z
  _atom_site_occupancy
  La  La1       1.0  0.8885623363463253  0.951297980697694  0.34668398559015134  1.0000
  La  La2       1.0  0.4827506775168182  0.12409597749048906  0.9651414967395398  1.0000
  La  La3       1.0  0.2405017697853008  0.721972515819953  0.22483419461690657  1.0000
  La  La4       1.0  0.388185284515675  0.20263370148483517  0.9633403851151252  1.0000
