data_image0
_chemical_formula_structural       La4
_chemical_formula_sum              "La4"
_cell_length_a       3.79631058
_cell_length_b       3.7963124114957743
_cell_length_c       12.04125753
_cell_angle_alpha    90.0
_cell_angle_beta     90.0
_cell_angle_gamma    120.00000329189716

_space_group_name_H-M_alt    "P 1"
_space_group_IT_number       1

loop_
  _space_group_symop_operation_xyz
  'x, y, z'

loop_
  _atom_site_type_symbol
  _atom_site_label
  _atom_site_symmetry_multiplicity
  _atom_site_fract_x
  _atom_site_fract_y
  _atom_site_fract_z
  _atom_site_occupancy
  La  La1       1.0  0.22136787914011702  0.8269303386106515  0.33226166799310874  1.0000
  La  La2       1.0  0.6205420446689516  0.6025446271334083  0.9320019260431502  1.0000
  La  La3       1.0  0.21614392105178482  0.6660790707371136  0.5604583589459109  1.0000
  La  La4       1.0  0.941946166157539  0.9044460823997991  0.675278130346832  1.0000
