data_image0
_chemical_formula_structural       La4
_chemical_formula_sum              "La4"
_cell_length_a       3.79631058
_cell_length_b       3.7963124114957743
_cell_length_c       12.04125753
_cell_angle_alpha    90.0
_cell_angle_beta     90.0
_cell_angle_gamma    120.00000329189716

_space_group_name_H-M_alt    "P 1"
_space_group_IT_number       1

loop_
  _space_group_symop_operation_xyz
  'x, y, z'

loop_
  _atom_site_type_symbol
  _atom_site_label
  _atom_site_symmetry_multiplicity
  _atom_site_fract_x
  _atom_site_fract_y
  _atom_site_fract_z
  _atom_site_occupancy
  La  La1       1.0  0.2193130206934537  0.9171759054882105  0.9733507274184436  1.0000
  La  La2       1.0  0.6229740477464141  0.6773527175092993  0.7245677597902291  1.0000
  La  La3       1.0  0.9573921947687136  0.41876735765303863  0.3377977002483942  1.0000
  La  La4       1.0  0.200320826388926  0.9867040869948163  0.4642838037866994  1.0000
