data_image0
_chemical_formula_structural       La4
_chemical_formula_sum              "La4"
_cell_length_a       3.79631058
_cell_length_b       3.7963124114957743
_cell_length_c       12.04125753
_cell_angle_alpha    90.0
_cell_angle_beta     90.0
_cell_angle_gamma    120.00000329189716

_space_group_name_H-M_alt    "P 1"
_space_group_IT_number       1

loop_
  _space_group_symop_operation_xyz
  'x, y, z'

loop_
  _atom_site_type_symbol
  _atom_site_label
  _atom_site_symmetry_multiplicity
  _atom_site_fract_x
  _atom_site_fract_y
  _atom_site_fract_z
  _atom_site_occupancy
  La  La1       1.0  0.8792073069451547  0.4974568992880187  0.5702524645592213  1.0000
  La  La2       1.0  0.4456353834791358  0.18521695244051184  0.4898229995847698  1.0000
  La  La3       1.0  0.8206426159313391  0.4487154930174482  0.5027635713919585  1.0000
  La  La4       1.0  0.8545147048312813  0.8686107830103871  0.9371610477554055  1.0000
