data_image0
_chemical_formula_structural       La4
_chemical_formula_sum              "La4"
_cell_length_a       3.79631058
_cell_length_b       3.7963124114957743
_cell_length_c       12.04125753
_cell_angle_alpha    90.0
_cell_angle_beta     90.0
_cell_angle_gamma    120.00000329189716

_space_group_name_H-M_alt    "P 1"
_space_group_IT_number       1

loop_
  _space_group_symop_operation_xyz
  'x, y, z'

loop_
  _atom_site_type_symbol
  _atom_site_label
  _atom_site_symmetry_multiplicity
  _atom_site_fract_x
  _atom_site_fract_y
  _atom_site_fract_z
  _atom_site_occupancy
  La  La1       1.0  0.717890448839535  0.0902450124281966  0.2716654378184069  1.0000
  La  La2       1.0  0.8659570899832265  0.7699661011414292  0.9637022735944398  1.0000
  La  La3       1.0  0.07599916471494872  0.9416470775531813  0.05824368887061926  1.0000
  La  La4       1.0  0.3401533057894488  0.1981418146490288  0.20638859895529627  1.0000
