data_image0
_chemical_formula_structural       La4
_chemical_formula_sum              "La4"
_cell_length_a       3.79631058
_cell_length_b       3.7963124114957743
_cell_length_c       12.04125753
_cell_angle_alpha    90.0
_cell_angle_beta     90.0
_cell_angle_gamma    120.00000329189716

_space_group_name_H-M_alt    "P 1"
_space_group_IT_number       1

loop_
  _space_group_symop_operation_xyz
  'x, y, z'

loop_
  _atom_site_type_symbol
  _atom_site_label
  _atom_site_symmetry_multiplicity
  _atom_site_fract_x
  _atom_site_fract_y
  _atom_site_fract_z
  _atom_site_occupancy
  La  La1       1.0  0.49146277323161236  0.3148518956658046  0.9985944275134573  1.0000
  La  La2       1.0  0.5604493583681993  0.5446506721597135  0.8696802734478986  1.0000
  La  La3       1.0  0.537759247615886  0.9119121954150717  0.49774530983794296  1.0000
  La  La4       1.0  0.4103287223099983  0.22858525582705624  0.13397998306195635  1.0000
