data_image0
_chemical_formula_structural       La4
_chemical_formula_sum              "La4"
_cell_length_a       3.79631058
_cell_length_b       3.7963124114957743
_cell_length_c       12.04125753
_cell_angle_alpha    90.0
_cell_angle_beta     90.0
_cell_angle_gamma    120.00000329189716

_space_group_name_H-M_alt    "P 1"
_space_group_IT_number       1

loop_
  _space_group_symop_operation_xyz
  'x, y, z'

loop_
  _atom_site_type_symbol
  _atom_site_label
  _atom_site_symmetry_multiplicity
  _atom_site_fract_x
  _atom_site_fract_y
  _atom_site_fract_z
  _atom_site_occupancy
  La  La1       1.0  0.26833276461013256  0.6775528834498155  0.09541979154784741  1.0000
  La  La2       1.0  0.674708429079792  0.7037653209135089  0.25670002244003687  1.0000
  La  La3       1.0  0.6483088197783147  0.34613789608329526  0.6277899577742492  1.0000
  La  La4       1.0  0.40865007674172493  0.27254397452291457  0.5200902254769835  1.0000
