data_image0
_chemical_formula_structural       La4
_chemical_formula_sum              "La4"
_cell_length_a       3.79631058
_cell_length_b       3.7963124114957743
_cell_length_c       12.04125753
_cell_angle_alpha    90.0
_cell_angle_beta     90.0
_cell_angle_gamma    120.00000329189716

_space_group_name_H-M_alt    "P 1"
_space_group_IT_number       1

loop_
  _space_group_symop_operation_xyz
  'x, y, z'

loop_
  _atom_site_type_symbol
  _atom_site_label
  _atom_site_symmetry_multiplicity
  _atom_site_fract_x
  _atom_site_fract_y
  _atom_site_fract_z
  _atom_site_occupancy
  La  La1       1.0  0.5473103204318606  0.1313006409822779  0.4342284129561276  1.0000
  La  La2       1.0  0.6784973237524738  0.7709472823430268  0.07568740405279728  1.0000
  La  La3       1.0  0.42177018024044965  0.16752871955522153  0.9740542234251799  1.0000
  La  La4       1.0  0.3524222046806358  0.9302233406839591  0.01602996392980649  1.0000
