data_image0
_chemical_formula_structural       La4
_chemical_formula_sum              "La4"
_cell_length_a       3.79631058
_cell_length_b       3.7963124114957743
_cell_length_c       12.04125753
_cell_angle_alpha    90.0
_cell_angle_beta     90.0
_cell_angle_gamma    120.00000329189716

_space_group_name_H-M_alt    "P 1"
_space_group_IT_number       1

loop_
  _space_group_symop_operation_xyz
  'x, y, z'

loop_
  _atom_site_type_symbol
  _atom_site_label
  _atom_site_symmetry_multiplicity
  _atom_site_fract_x
  _atom_site_fract_y
  _atom_site_fract_z
  _atom_site_occupancy
  La  La1       1.0  0.7937532831613048  0.051544711672775634  0.08242866639311863  1.0000
  La  La2       1.0  0.5099544594196206  0.9148255064479525  0.23507240101437088  1.0000
  La  La3       1.0  0.3715087759336677  0.4534242550567922  0.8410036660679951  1.0000
  La  La4       1.0  0.3247835553113223  0.5802056988097064  0.3414953294764995  1.0000
