data_image0
_chemical_formula_structural       La4
_chemical_formula_sum              "La4"
_cell_length_a       3.79631058
_cell_length_b       3.7963124114957743
_cell_length_c       12.04125753
_cell_angle_alpha    90.0
_cell_angle_beta     90.0
_cell_angle_gamma    120.00000329189716

_space_group_name_H-M_alt    "P 1"
_space_group_IT_number       1

loop_
  _space_group_symop_operation_xyz
  'x, y, z'

loop_
  _atom_site_type_symbol
  _atom_site_label
  _atom_site_symmetry_multiplicity
  _atom_site_fract_x
  _atom_site_fract_y
  _atom_site_fract_z
  _atom_site_occupancy
  La  La1       1.0  0.7099294377585643  0.021093686661032507  0.03683796361054448  1.0000
  La  La2       1.0  0.5853553618298921  0.17103683783739498  0.2085352151238734  1.0000
  La  La3       1.0  0.2997976075559532  0.6833279828642307  0.7427942777684979  1.0000
  La  La4       1.0  0.40491765965980075  0.12454166161734115  0.5118326053358011  1.0000
