data_image0
_chemical_formula_structural       La4
_chemical_formula_sum              "La4"
_cell_length_a       3.79631058
_cell_length_b       3.7963124114957743
_cell_length_c       12.04125753
_cell_angle_alpha    90.0
_cell_angle_beta     90.0
_cell_angle_gamma    120.00000329189716

_space_group_name_H-M_alt    "P 1"
_space_group_IT_number       1

loop_
  _space_group_symop_operation_xyz
  'x, y, z'

loop_
  _atom_site_type_symbol
  _atom_site_label
  _atom_site_symmetry_multiplicity
  _atom_site_fract_x
  _atom_site_fract_y
  _atom_site_fract_z
  _atom_site_occupancy
  La  La1       1.0  0.66989557152991  0.0044418416920382064  0.916874992649455  1.0000
  La  La2       1.0  0.217725665080573  0.10911393620897614  0.8450918343413876  1.0000
  La  La3       1.0  0.8322322149128034  0.03190864684111183  0.09573821493773993  1.0000
  La  La4       1.0  0.28014664739262063  0.854535652990613  0.6422949474262838  1.0000
