data_image0
_chemical_formula_structural       La4
_chemical_formula_sum              "La4"
_cell_length_a       3.79631058
_cell_length_b       3.7963124114957743
_cell_length_c       12.04125753
_cell_angle_alpha    90.0
_cell_angle_beta     90.0
_cell_angle_gamma    120.00000329189716

_space_group_name_H-M_alt    "P 1"
_space_group_IT_number       1

loop_
  _space_group_symop_operation_xyz
  'x, y, z'

loop_
  _atom_site_type_symbol
  _atom_site_label
  _atom_site_symmetry_multiplicity
  _atom_site_fract_x
  _atom_site_fract_y
  _atom_site_fract_z
  _atom_site_occupancy
  La  La1       1.0  0.04593577633403845  0.7050339210501129  0.14987913151645094  1.0000
  La  La2       1.0  0.8076146038881404  0.4862757217846978  0.27296540911449885  1.0000
  La  La3       1.0  0.07400737698902127  0.24849144176101667  0.10186138179096164  1.0000
  La  La4       1.0  0.07244216156488825  0.5601989734565826  0.9752941229059546  1.0000
