data_image0
_chemical_formula_structural       La4
_chemical_formula_sum              "La4"
_cell_length_a       3.79631058
_cell_length_b       3.7963124114957743
_cell_length_c       12.04125753
_cell_angle_alpha    90.0
_cell_angle_beta     90.0
_cell_angle_gamma    120.00000329189716

_space_group_name_H-M_alt    "P 1"
_space_group_IT_number       1

loop_
  _space_group_symop_operation_xyz
  'x, y, z'

loop_
  _atom_site_type_symbol
  _atom_site_label
  _atom_site_symmetry_multiplicity
  _atom_site_fract_x
  _atom_site_fract_y
  _atom_site_fract_z
  _atom_site_occupancy
  La  La1       1.0  0.5546393889355334  0.02527168202846397  0.339623746054206  1.0000
  La  La2       1.0  0.470734076367603  0.10595137885149253  0.8202605080827235  1.0000
  La  La3       1.0  0.645946905949625  0.04225827253580583  0.3499101681257794  1.0000
  La  La4       1.0  0.328679603958939  0.8265187619916183  0.9902056232264491  1.0000
