data_image0
_chemical_formula_structural       La4
_chemical_formula_sum              "La4"
_cell_length_a       3.79631058
_cell_length_b       3.7963124114957743
_cell_length_c       12.04125753
_cell_angle_alpha    90.0
_cell_angle_beta     90.0
_cell_angle_gamma    120.00000329189716

_space_group_name_H-M_alt    "P 1"
_space_group_IT_number       1

loop_
  _space_group_symop_operation_xyz
  'x, y, z'

loop_
  _atom_site_type_symbol
  _atom_site_label
  _atom_site_symmetry_multiplicity
  _atom_site_fract_x
  _atom_site_fract_y
  _atom_site_fract_z
  _atom_site_occupancy
  La  La1       1.0  0.3405628461253922  0.10400688601385477  0.8424115591795363  1.0000
  La  La2       1.0  0.1792836502610453  0.18922669154400928  0.46239381192122364  1.0000
  La  La3       1.0  0.5930013300522896  0.7061775333202904  0.04802746651727441  1.0000
  La  La4       1.0  0.887152204204896  0.000588883313859867  0.14716716611134684  1.0000
