data_image0
_chemical_formula_structural       La4
_chemical_formula_sum              "La4"
_cell_length_a       3.79631058
_cell_length_b       3.7963124114957743
_cell_length_c       12.04125753
_cell_angle_alpha    90.0
_cell_angle_beta     90.0
_cell_angle_gamma    120.00000329189716

_space_group_name_H-M_alt    "P 1"
_space_group_IT_number       1

loop_
  _space_group_symop_operation_xyz
  'x, y, z'

loop_
  _atom_site_type_symbol
  _atom_site_label
  _atom_site_symmetry_multiplicity
  _atom_site_fract_x
  _atom_site_fract_y
  _atom_site_fract_z
  _atom_site_occupancy
  La  La1       1.0  0.7013622340470529  0.8022521871834702  0.19543587774747628  1.0000
  La  La2       1.0  0.4057368587187904  0.5228951286862564  0.3415954741548872  1.0000
  La  La3       1.0  0.6827442119662932  0.6640739403455971  0.06624787388242215  1.0000
  La  La4       1.0  0.21015672340837455  0.010778727221673279  0.8967207784308497  1.0000
