data_image0
_chemical_formula_structural       La4
_chemical_formula_sum              "La4"
_cell_length_a       3.79631058
_cell_length_b       3.7963124114957743
_cell_length_c       12.04125753
_cell_angle_alpha    90.0
_cell_angle_beta     90.0
_cell_angle_gamma    120.00000329189716

_space_group_name_H-M_alt    "P 1"
_space_group_IT_number       1

loop_
  _space_group_symop_operation_xyz
  'x, y, z'

loop_
  _atom_site_type_symbol
  _atom_site_label
  _atom_site_symmetry_multiplicity
  _atom_site_fract_x
  _atom_site_fract_y
  _atom_site_fract_z
  _atom_site_occupancy
  La  La1       1.0  0.8878678617026576  0.1482262725461414  0.1367790427940534  1.0000
  La  La2       1.0  0.34993704320471153  0.6955948181830038  0.43403244853879297  1.0000
  La  La3       1.0  0.446756149527058  0.19069662411180488  0.600232817958729  1.0000
  La  La4       1.0  0.31543896094363255  0.9654824546977725  0.3289557733386044  1.0000
