data_image0
_chemical_formula_structural       La4
_chemical_formula_sum              "La4"
_cell_length_a       3.79631058
_cell_length_b       3.7963124114957743
_cell_length_c       12.04125753
_cell_angle_alpha    90.0
_cell_angle_beta     90.0
_cell_angle_gamma    120.00000329189716

_space_group_name_H-M_alt    "P 1"
_space_group_IT_number       1

loop_
  _space_group_symop_operation_xyz
  'x, y, z'

loop_
  _atom_site_type_symbol
  _atom_site_label
  _atom_site_symmetry_multiplicity
  _atom_site_fract_x
  _atom_site_fract_y
  _atom_site_fract_z
  _atom_site_occupancy
  La  La1       1.0  0.5411689700084756  0.5215297614823535  0.5760715475378673  1.0000
  La  La2       1.0  0.28451917305381524  0.363095329059556  0.8447225613131164  1.0000
  La  La3       1.0  0.03130857101613708  0.5023988823744538  0.9470429667168263  1.0000
  La  La4       1.0  0.14300331614423456  0.6129760115655394  0.13216292890998171  1.0000
