data_image0
_chemical_formula_structural       La4
_chemical_formula_sum              "La4"
_cell_length_a       3.79631058
_cell_length_b       3.7963124114957743
_cell_length_c       12.04125753
_cell_angle_alpha    90.0
_cell_angle_beta     90.0
_cell_angle_gamma    120.00000329189716

_space_group_name_H-M_alt    "P 1"
_space_group_IT_number       1

loop_
  _space_group_symop_operation_xyz
  'x, y, z'

loop_
  _atom_site_type_symbol
  _atom_site_label
  _atom_site_symmetry_multiplicity
  _atom_site_fract_x
  _atom_site_fract_y
  _atom_site_fract_z
  _atom_site_occupancy
  La  La1       1.0  0.5758875604656879  0.8321965024358651  0.0746116725066912  1.0000
  La  La2       1.0  0.8490272808809673  0.9578849486128038  0.7529952176803716  1.0000
  La  La3       1.0  0.8685335681579298  0.13961383320423115  0.7547194881591279  1.0000
  La  La4       1.0  0.7065515945561636  0.07030471545666295  0.9176736201940915  1.0000
