data_image0
_chemical_formula_structural       La4
_chemical_formula_sum              "La4"
_cell_length_a       3.79631058
_cell_length_b       3.7963124114957743
_cell_length_c       12.04125753
_cell_angle_alpha    90.0
_cell_angle_beta     90.0
_cell_angle_gamma    120.00000329189716

_space_group_name_H-M_alt    "P 1"
_space_group_IT_number       1

loop_
  _space_group_symop_operation_xyz
  'x, y, z'

loop_
  _atom_site_type_symbol
  _atom_site_label
  _atom_site_symmetry_multiplicity
  _atom_site_fract_x
  _atom_site_fract_y
  _atom_site_fract_z
  _atom_site_occupancy
  La  La1       1.0  0.1118245499339725  0.42044314902424773  0.36541812455094913  1.0000
  La  La2       1.0  0.9533574548706492  0.4308552430532922  0.42117780205854616  1.0000
  La  La3       1.0  0.84419429782292  0.5968261445235987  0.4739857495134956  1.0000
  La  La4       1.0  0.09062375108065623  0.5518756088740489  0.23941837324891235  1.0000
