data_image0
_chemical_formula_structural       La4
_chemical_formula_sum              "La4"
_cell_length_a       3.79631058
_cell_length_b       3.7963124114957743
_cell_length_c       12.04125753
_cell_angle_alpha    90.0
_cell_angle_beta     90.0
_cell_angle_gamma    120.00000329189716

_space_group_name_H-M_alt    "P 1"
_space_group_IT_number       1

loop_
  _space_group_symop_operation_xyz
  'x, y, z'

loop_
  _atom_site_type_symbol
  _atom_site_label
  _atom_site_symmetry_multiplicity
  _atom_site_fract_x
  _atom_site_fract_y
  _atom_site_fract_z
  _atom_site_occupancy
  La  La1       1.0  0.44567779613995206  0.4909765835535662  0.40204843983780414  1.0000
  La  La2       1.0  0.9344860044877379  0.7269739774898536  0.0521664677616247  1.0000
  La  La3       1.0  0.13719607027701164  0.9570361015445403  0.03554680721343462  1.0000
  La  La4       1.0  0.4826401727722476  0.8250135132083223  0.010238368335029335  1.0000
