data_image0
_chemical_formula_structural       La4
_chemical_formula_sum              "La4"
_cell_length_a       3.79631058
_cell_length_b       3.7963124114957743
_cell_length_c       12.04125753
_cell_angle_alpha    90.0
_cell_angle_beta     90.0
_cell_angle_gamma    120.00000329189716

_space_group_name_H-M_alt    "P 1"
_space_group_IT_number       1

loop_
  _space_group_symop_operation_xyz
  'x, y, z'

loop_
  _atom_site_type_symbol
  _atom_site_label
  _atom_site_symmetry_multiplicity
  _atom_site_fract_x
  _atom_site_fract_y
  _atom_site_fract_z
  _atom_site_occupancy
  La  La1       1.0  0.8860400681613836  0.6241144514950467  0.45834363161516034  1.0000
  La  La2       1.0  0.6991624946515493  0.4594306168873068  0.8406698094989478  1.0000
  La  La3       1.0  0.9991995579976987  0.9251450758091657  0.01826284573275827  1.0000
  La  La4       1.0  0.4155979926203104  0.9913099519286312  0.18272370138660943  1.0000
