data_image0
_chemical_formula_structural       La4
_chemical_formula_sum              "La4"
_cell_length_a       3.79631058
_cell_length_b       3.7963124114957743
_cell_length_c       12.04125753
_cell_angle_alpha    90.0
_cell_angle_beta     90.0
_cell_angle_gamma    120.00000329189716

_space_group_name_H-M_alt    "P 1"
_space_group_IT_number       1

loop_
  _space_group_symop_operation_xyz
  'x, y, z'

loop_
  _atom_site_type_symbol
  _atom_site_label
  _atom_site_symmetry_multiplicity
  _atom_site_fract_x
  _atom_site_fract_y
  _atom_site_fract_z
  _atom_site_occupancy
  La  La1       1.0  0.21182895062545626  0.7699379907455741  0.2040594582275954  1.0000
  La  La2       1.0  0.5084549314135458  0.17384955145068393  0.7614130768826017  1.0000
  La  La3       1.0  0.3734780350793372  0.29423893772769016  0.6465448755220156  1.0000
  La  La4       1.0  0.906238086236387  0.7619736826292449  0.8879826718143553  1.0000
