data_image0
_chemical_formula_structural       La4
_chemical_formula_sum              "La4"
_cell_length_a       3.79631058
_cell_length_b       3.7963124114957743
_cell_length_c       12.04125753
_cell_angle_alpha    90.0
_cell_angle_beta     90.0
_cell_angle_gamma    120.00000329189716

_space_group_name_H-M_alt    "P 1"
_space_group_IT_number       1

loop_
  _space_group_symop_operation_xyz
  'x, y, z'

loop_
  _atom_site_type_symbol
  _atom_site_label
  _atom_site_symmetry_multiplicity
  _atom_site_fract_x
  _atom_site_fract_y
  _atom_site_fract_z
  _atom_site_occupancy
  La  La1       1.0  0.9450999794116477  0.8344890831775977  0.9773811739303362  1.0000
  La  La2       1.0  0.8918743324401781  0.2970467469625131  0.11146245085236073  1.0000
  La  La3       1.0  0.17804055654927442  0.7439710655382394  0.9428293667905112  1.0000
  La  La4       1.0  0.9849851698897633  0.12449328971917417  0.46832709334621114  1.0000
