data_image0
_chemical_formula_structural       La4
_chemical_formula_sum              "La4"
_cell_length_a       3.79631058
_cell_length_b       3.7963124114957743
_cell_length_c       12.04125753
_cell_angle_alpha    90.0
_cell_angle_beta     90.0
_cell_angle_gamma    120.00000329189716

_space_group_name_H-M_alt    "P 1"
_space_group_IT_number       1

loop_
  _space_group_symop_operation_xyz
  'x, y, z'

loop_
  _atom_site_type_symbol
  _atom_site_label
  _atom_site_symmetry_multiplicity
  _atom_site_fract_x
  _atom_site_fract_y
  _atom_site_fract_z
  _atom_site_occupancy
  La  La1       1.0  0.2547267719439703  0.6014284912232046  0.27993651530327757  1.0000
  La  La2       1.0  0.15724791716947184  0.26782983101711455  0.2783231445448777  1.0000
  La  La3       1.0  0.4062975341963533  0.4226680388856199  0.9022847595057151  1.0000
  La  La4       1.0  0.18172769357462037  0.708073693004792  0.03945562646066403  1.0000
