data_image0
_chemical_formula_structural       La4
_chemical_formula_sum              "La4"
_cell_length_a       3.79631058
_cell_length_b       3.7963124114957743
_cell_length_c       12.04125753
_cell_angle_alpha    90.0
_cell_angle_beta     90.0
_cell_angle_gamma    120.00000329189716

_space_group_name_H-M_alt    "P 1"
_space_group_IT_number       1

loop_
  _space_group_symop_operation_xyz
  'x, y, z'

loop_
  _atom_site_type_symbol
  _atom_site_label
  _atom_site_symmetry_multiplicity
  _atom_site_fract_x
  _atom_site_fract_y
  _atom_site_fract_z
  _atom_site_occupancy
  La  La1       1.0  0.09392406279327226  0.41644000346575005  0.6358833001058297  1.0000
  La  La2       1.0  0.0036549451588463455  0.44880199989054326  0.16487524546071475  1.0000
  La  La3       1.0  0.7471810618315375  0.960730239013702  0.8887519478582272  1.0000
  La  La4       1.0  0.15523996098714887  0.1740279464108223  0.8104895910571956  1.0000
