data_image0
_chemical_formula_structural       La4
_chemical_formula_sum              "La4"
_cell_length_a       3.79631058
_cell_length_b       3.7963124114957743
_cell_length_c       12.04125753
_cell_angle_alpha    90.0
_cell_angle_beta     90.0
_cell_angle_gamma    120.00000329189716

_space_group_name_H-M_alt    "P 1"
_space_group_IT_number       1

loop_
  _space_group_symop_operation_xyz
  'x, y, z'

loop_
  _atom_site_type_symbol
  _atom_site_label
  _atom_site_symmetry_multiplicity
  _atom_site_fract_x
  _atom_site_fract_y
  _atom_site_fract_z
  _atom_site_occupancy
  La  La1       1.0  0.5492738786084743  0.7626860006584675  0.22744748993258046  1.0000
  La  La2       1.0  0.005708469896988255  0.45044169967556336  0.8701266800784468  1.0000
  La  La3       1.0  0.702237868149826  0.9180968531105194  0.1478861149763495  1.0000
  La  La4       1.0  0.742779714621939  0.8687755172661973  0.2545397585583773  1.0000
