data_image0
_chemical_formula_structural       La4
_chemical_formula_sum              "La4"
_cell_length_a       3.79631058
_cell_length_b       3.7963124114957743
_cell_length_c       12.04125753
_cell_angle_alpha    90.0
_cell_angle_beta     90.0
_cell_angle_gamma    120.00000329189716

_space_group_name_H-M_alt    "P 1"
_space_group_IT_number       1

loop_
  _space_group_symop_operation_xyz
  'x, y, z'

loop_
  _atom_site_type_symbol
  _atom_site_label
  _atom_site_symmetry_multiplicity
  _atom_site_fract_x
  _atom_site_fract_y
  _atom_site_fract_z
  _atom_site_occupancy
  La  La1       1.0  0.4677991407869744  0.1643614913112239  0.5705656988881405  1.0000
  La  La2       1.0  0.8617258045132061  0.9556775688241905  0.43476042484339583  1.0000
  La  La3       1.0  0.3521211022183115  0.9607587246470786  0.3847273533873621  1.0000
  La  La4       1.0  0.31835396152876605  0.9192023435269099  0.10994660621633834  1.0000
