data_image0
_chemical_formula_structural       La4
_chemical_formula_sum              "La4"
_cell_length_a       3.79631058
_cell_length_b       3.7963124114957743
_cell_length_c       12.04125753
_cell_angle_alpha    90.0
_cell_angle_beta     90.0
_cell_angle_gamma    120.00000329189716

_space_group_name_H-M_alt    "P 1"
_space_group_IT_number       1

loop_
  _space_group_symop_operation_xyz
  'x, y, z'

loop_
  _atom_site_type_symbol
  _atom_site_label
  _atom_site_symmetry_multiplicity
  _atom_site_fract_x
  _atom_site_fract_y
  _atom_site_fract_z
  _atom_site_occupancy
  La  La1       1.0  0.05814251549358751  0.024287396638210446  0.8431775422582879  1.0000
  La  La2       1.0  0.5496283577322281  0.42286021630437887  0.29590739345131206  1.0000
  La  La3       1.0  0.7712337655658885  0.583884797280005  0.4893712812251727  1.0000
  La  La4       1.0  0.6209955085264154  0.9689677102385499  0.8715437865490197  1.0000
