data_image0
_chemical_formula_structural       La4
_chemical_formula_sum              "La4"
_cell_length_a       3.79631058
_cell_length_b       3.7963124114957743
_cell_length_c       12.04125753
_cell_angle_alpha    90.0
_cell_angle_beta     90.0
_cell_angle_gamma    120.00000329189716

_space_group_name_H-M_alt    "P 1"
_space_group_IT_number       1

loop_
  _space_group_symop_operation_xyz
  'x, y, z'

loop_
  _atom_site_type_symbol
  _atom_site_label
  _atom_site_symmetry_multiplicity
  _atom_site_fract_x
  _atom_site_fract_y
  _atom_site_fract_z
  _atom_site_occupancy
  La  La1       1.0  0.863604854664926  0.5496809511385627  0.45342430472966044  1.0000
  La  La2       1.0  0.13929432046464996  0.679325385617414  0.2946527456941439  1.0000
  La  La3       1.0  0.16770814885209973  0.4749575721282646  0.3270800715526283  1.0000
  La  La4       1.0  0.829392754443671  0.29603615825358887  0.42484287714879  1.0000
