data_image0
_chemical_formula_structural       La4
_chemical_formula_sum              "La4"
_cell_length_a       3.79631058
_cell_length_b       3.7963124114957743
_cell_length_c       12.04125753
_cell_angle_alpha    90.0
_cell_angle_beta     90.0
_cell_angle_gamma    120.00000329189716

_space_group_name_H-M_alt    "P 1"
_space_group_IT_number       1

loop_
  _space_group_symop_operation_xyz
  'x, y, z'

loop_
  _atom_site_type_symbol
  _atom_site_label
  _atom_site_symmetry_multiplicity
  _atom_site_fract_x
  _atom_site_fract_y
  _atom_site_fract_z
  _atom_site_occupancy
  La  La1       1.0  0.5015124097957315  0.8618677592067918  0.3583845350172621  1.0000
  La  La2       1.0  0.6703673277131659  0.6277548384174012  0.06508828732477467  1.0000
  La  La3       1.0  0.9961029028727211  0.1217232354029566  0.18605098266640718  1.0000
  La  La4       1.0  0.8320173793064853  0.38865416573387535  0.8904761974561778  1.0000
