data_image0
_chemical_formula_structural       La4
_chemical_formula_sum              "La4"
_cell_length_a       3.79631058
_cell_length_b       3.7963124114957743
_cell_length_c       12.04125753
_cell_angle_alpha    90.0
_cell_angle_beta     90.0
_cell_angle_gamma    120.00000329189716

_space_group_name_H-M_alt    "P 1"
_space_group_IT_number       1

loop_
  _space_group_symop_operation_xyz
  'x, y, z'

loop_
  _atom_site_type_symbol
  _atom_site_label
  _atom_site_symmetry_multiplicity
  _atom_site_fract_x
  _atom_site_fract_y
  _atom_site_fract_z
  _atom_site_occupancy
  La  La1       1.0  0.05069504989817375  0.38486351251057016  0.28795693663480026  1.0000
  La  La2       1.0  0.6982768260555954  0.43260199345520434  0.037532922292737636  1.0000
  La  La3       1.0  0.29573497654647696  0.2703874056786848  0.06681758384755776  1.0000
  La  La4       1.0  0.9552933081119299  0.9121471960431506  0.10769255689775736  1.0000
