data_image0
_chemical_formula_structural       La4
_chemical_formula_sum              "La4"
_cell_length_a       3.79631058
_cell_length_b       3.7963124114957743
_cell_length_c       12.04125753
_cell_angle_alpha    90.0
_cell_angle_beta     90.0
_cell_angle_gamma    120.00000329189716

_space_group_name_H-M_alt    "P 1"
_space_group_IT_number       1

loop_
  _space_group_symop_operation_xyz
  'x, y, z'

loop_
  _atom_site_type_symbol
  _atom_site_label
  _atom_site_symmetry_multiplicity
  _atom_site_fract_x
  _atom_site_fract_y
  _atom_site_fract_z
  _atom_site_occupancy
  La  La1       1.0  0.4482730468592244  0.7820922628303428  0.2871342144848681  1.0000
  La  La2       1.0  0.1089530621166972  0.27932026565046364  0.17133827407103208  1.0000
  La  La3       1.0  0.10317834305875007  0.15624860877123248  0.004905900480823578  1.0000
  La  La4       1.0  0.33959545869611074  0.782338884910736  0.03662164986774563  1.0000
