data_image0
_chemical_formula_structural       La4
_chemical_formula_sum              "La4"
_cell_length_a       3.79631058
_cell_length_b       3.7963124114957743
_cell_length_c       12.04125753
_cell_angle_alpha    90.0
_cell_angle_beta     90.0
_cell_angle_gamma    120.00000329189716

_space_group_name_H-M_alt    "P 1"
_space_group_IT_number       1

loop_
  _space_group_symop_operation_xyz
  'x, y, z'

loop_
  _atom_site_type_symbol
  _atom_site_label
  _atom_site_symmetry_multiplicity
  _atom_site_fract_x
  _atom_site_fract_y
  _atom_site_fract_z
  _atom_site_occupancy
  La  La1       1.0  0.24612895485469188  0.39188334498622446  0.9669891187911732  1.0000
  La  La2       1.0  0.5275140755867755  0.9147265887010949  0.39533564830945644  1.0000
  La  La3       1.0  0.13834074175649258  0.8232896207040645  0.6199442057079141  1.0000
  La  La4       1.0  0.08801629796190902  0.8701006156518076  0.5177310894143892  1.0000
