data_image0
_chemical_formula_structural       La4
_chemical_formula_sum              "La4"
_cell_length_a       3.79631058
_cell_length_b       3.7963124114957743
_cell_length_c       12.04125753
_cell_angle_alpha    90.0
_cell_angle_beta     90.0
_cell_angle_gamma    120.00000329189716

_space_group_name_H-M_alt    "P 1"
_space_group_IT_number       1

loop_
  _space_group_symop_operation_xyz
  'x, y, z'

loop_
  _atom_site_type_symbol
  _atom_site_label
  _atom_site_symmetry_multiplicity
  _atom_site_fract_x
  _atom_site_fract_y
  _atom_site_fract_z
  _atom_site_occupancy
  La  La1       1.0  0.8490280045017644  0.697817019626255  0.7923429094574033  1.0000
  La  La2       1.0  0.299240371050443  0.5143243165612272  0.05938020088617879  1.0000
  La  La3       1.0  0.3873047896439088  0.05582825553847215  0.2286288009384907  1.0000
  La  La4       1.0  0.4644268592650036  0.7320303952884117  0.4196480889481754  1.0000
