data_image0
_chemical_formula_structural       La4
_chemical_formula_sum              "La4"
_cell_length_a       3.79631058
_cell_length_b       3.7963124114957743
_cell_length_c       12.04125753
_cell_angle_alpha    90.0
_cell_angle_beta     90.0
_cell_angle_gamma    120.00000329189716

_space_group_name_H-M_alt    "P 1"
_space_group_IT_number       1

loop_
  _space_group_symop_operation_xyz
  'x, y, z'

loop_
  _atom_site_type_symbol
  _atom_site_label
  _atom_site_symmetry_multiplicity
  _atom_site_fract_x
  _atom_site_fract_y
  _atom_site_fract_z
  _atom_site_occupancy
  La  La1       1.0  0.40023831582467606  0.41727716550151506  0.3126223023683554  1.0000
  La  La2       1.0  0.7121524070952905  0.7052487046101277  0.45475052427643936  1.0000
  La  La3       1.0  0.1634509344258248  0.6377379821268914  0.22246816323185906  1.0000
  La  La4       1.0  0.7241582565526361  0.23973620038290022  0.5101590562842078  1.0000
