data_image0
_chemical_formula_structural       La4
_chemical_formula_sum              "La4"
_cell_length_a       3.79631058
_cell_length_b       3.7963124114957743
_cell_length_c       12.04125753
_cell_angle_alpha    90.0
_cell_angle_beta     90.0
_cell_angle_gamma    120.00000329189716

_space_group_name_H-M_alt    "P 1"
_space_group_IT_number       1

loop_
  _space_group_symop_operation_xyz
  'x, y, z'

loop_
  _atom_site_type_symbol
  _atom_site_label
  _atom_site_symmetry_multiplicity
  _atom_site_fract_x
  _atom_site_fract_y
  _atom_site_fract_z
  _atom_site_occupancy
  La  La1       1.0  0.4625947860479567  0.12609476352302984  0.1041305271342674  1.0000
  La  La2       1.0  0.5772446273412735  0.2470002657313124  0.3357417053070586  1.0000
  La  La3       1.0  0.24807660482527538  0.2957637700187741  0.0496619818439549  1.0000
  La  La4       1.0  0.7120838871745565  0.33114121866240254  0.010465826563959002  1.0000
