data_image0
_chemical_formula_structural       La4
_chemical_formula_sum              "La4"
_cell_length_a       3.79631058
_cell_length_b       3.7963124114957743
_cell_length_c       12.04125753
_cell_angle_alpha    90.0
_cell_angle_beta     90.0
_cell_angle_gamma    120.00000329189716

_space_group_name_H-M_alt    "P 1"
_space_group_IT_number       1

loop_
  _space_group_symop_operation_xyz
  'x, y, z'

loop_
  _atom_site_type_symbol
  _atom_site_label
  _atom_site_symmetry_multiplicity
  _atom_site_fract_x
  _atom_site_fract_y
  _atom_site_fract_z
  _atom_site_occupancy
  La  La1       1.0  0.6422053760863697  0.1777382680599322  0.11805637640187516  1.0000
  La  La2       1.0  0.6553872901507387  0.9541712087911465  0.6167349070473399  1.0000
  La  La3       1.0  0.1659282832266209  0.1238250035364783  0.6501427201748444  1.0000
  La  La4       1.0  0.53647908220454  0.7442655275317014  0.11506599735850176  1.0000
