data_image0
_chemical_formula_structural       La4
_chemical_formula_sum              "La4"
_cell_length_a       3.79631058
_cell_length_b       3.7963124114957743
_cell_length_c       12.04125753
_cell_angle_alpha    90.0
_cell_angle_beta     90.0
_cell_angle_gamma    120.00000329189716

_space_group_name_H-M_alt    "P 1"
_space_group_IT_number       1

loop_
  _space_group_symop_operation_xyz
  'x, y, z'

loop_
  _atom_site_type_symbol
  _atom_site_label
  _atom_site_symmetry_multiplicity
  _atom_site_fract_x
  _atom_site_fract_y
  _atom_site_fract_z
  _atom_site_occupancy
  La  La1       1.0  0.15739273668316045  0.4104867593445185  0.13907128053121376  1.0000
  La  La2       1.0  0.5223798246784845  0.7188948619850608  0.5718536871531783  1.0000
  La  La3       1.0  0.5790338987815469  0.3009345859238195  0.6269829416406397  1.0000
  La  La4       1.0  0.7411935514499532  0.5696839608794555  0.16209217309875346  1.0000
