data_image0
_chemical_formula_structural       La4
_chemical_formula_sum              "La4"
_cell_length_a       3.79631058
_cell_length_b       3.7963124114957743
_cell_length_c       12.04125753
_cell_angle_alpha    90.0
_cell_angle_beta     90.0
_cell_angle_gamma    120.00000329189716

_space_group_name_H-M_alt    "P 1"
_space_group_IT_number       1

loop_
  _space_group_symop_operation_xyz
  'x, y, z'

loop_
  _atom_site_type_symbol
  _atom_site_label
  _atom_site_symmetry_multiplicity
  _atom_site_fract_x
  _atom_site_fract_y
  _atom_site_fract_z
  _atom_site_occupancy
  La  La1       1.0  0.30908679231511194  0.21506387479392153  0.8038434926825153  1.0000
  La  La2       1.0  0.34118899200262476  0.16434513860097333  0.9121753513484319  1.0000
  La  La3       1.0  0.8263211989068004  0.29026697557381453  0.9469010682819505  1.0000
  La  La4       1.0  0.5234031331906703  0.33032411583778654  0.8370800777591905  1.0000
