data_image0
_chemical_formula_structural       La4
_chemical_formula_sum              "La4"
_cell_length_a       3.79631058
_cell_length_b       3.7963124114957743
_cell_length_c       12.04125753
_cell_angle_alpha    90.0
_cell_angle_beta     90.0
_cell_angle_gamma    120.00000329189716

_space_group_name_H-M_alt    "P 1"
_space_group_IT_number       1

loop_
  _space_group_symop_operation_xyz
  'x, y, z'

loop_
  _atom_site_type_symbol
  _atom_site_label
  _atom_site_symmetry_multiplicity
  _atom_site_fract_x
  _atom_site_fract_y
  _atom_site_fract_z
  _atom_site_occupancy
  La  La1       1.0  0.3959114237507517  0.05896453927286405  0.796852100998803  1.0000
  La  La2       1.0  0.27632223035358017  0.33321172506299757  0.4412218909389427  1.0000
  La  La3       1.0  0.9937409043913199  0.16956284792211562  0.5592150702928145  1.0000
  La  La4       1.0  0.33402555654807936  0.4382609897023926  0.702710929027317  1.0000
