data_image0
_chemical_formula_structural       La4
_chemical_formula_sum              "La4"
_cell_length_a       3.79631058
_cell_length_b       3.7963124114957743
_cell_length_c       12.04125753
_cell_angle_alpha    90.0
_cell_angle_beta     90.0
_cell_angle_gamma    120.00000329189716

_space_group_name_H-M_alt    "P 1"
_space_group_IT_number       1

loop_
  _space_group_symop_operation_xyz
  'x, y, z'

loop_
  _atom_site_type_symbol
  _atom_site_label
  _atom_site_symmetry_multiplicity
  _atom_site_fract_x
  _atom_site_fract_y
  _atom_site_fract_z
  _atom_site_occupancy
  La  La1       1.0  0.7804234036203166  0.04730489950128672  0.05286802198510543  1.0000
  La  La2       1.0  0.8066410532086952  0.09409405840373086  0.23045506710988528  1.0000
  La  La3       1.0  0.5776965416258086  0.6585440645667084  0.22343654261895596  1.0000
  La  La4       1.0  0.8352390878999381  0.20005706563970094  0.9932403709238131  1.0000
