data_image0
_chemical_formula_structural       La4
_chemical_formula_sum              "La4"
_cell_length_a       3.79631058
_cell_length_b       3.7963124114957743
_cell_length_c       12.04125753
_cell_angle_alpha    90.0
_cell_angle_beta     90.0
_cell_angle_gamma    120.00000329189716

_space_group_name_H-M_alt    "P 1"
_space_group_IT_number       1

loop_
  _space_group_symop_operation_xyz
  'x, y, z'

loop_
  _atom_site_type_symbol
  _atom_site_label
  _atom_site_symmetry_multiplicity
  _atom_site_fract_x
  _atom_site_fract_y
  _atom_site_fract_z
  _atom_site_occupancy
  La  La1       1.0  0.6670583929684817  0.1042448820453421  0.45475266300617445  1.0000
  La  La2       1.0  0.16102200401301303  0.21186033853076225  0.6626209115337951  1.0000
  La  La3       1.0  0.4904097542763832  0.16967179344658057  0.940135263308056  1.0000
  La  La4       1.0  0.6815100016254192  0.5142230857157806  0.44249116344772155  1.0000
