data_image0
_chemical_formula_structural       La4
_chemical_formula_sum              "La4"
_cell_length_a       3.79631058
_cell_length_b       3.7963124114957743
_cell_length_c       12.04125753
_cell_angle_alpha    90.0
_cell_angle_beta     90.0
_cell_angle_gamma    120.00000329189716

_space_group_name_H-M_alt    "P 1"
_space_group_IT_number       1

loop_
  _space_group_symop_operation_xyz
  'x, y, z'

loop_
  _atom_site_type_symbol
  _atom_site_label
  _atom_site_symmetry_multiplicity
  _atom_site_fract_x
  _atom_site_fract_y
  _atom_site_fract_z
  _atom_site_occupancy
  La  La1       1.0  0.009855991885064697  0.8089570323514625  0.3892498802195161  1.0000
  La  La2       1.0  0.25870120871802804  0.7450166913158944  0.34504721668665184  1.0000
  La  La3       1.0  0.40740982555607275  0.443739959567619  0.2902489024488246  1.0000
  La  La4       1.0  0.3240330537499161  0.002286389715024484  0.47545400094227963  1.0000
