data_image0
_chemical_formula_structural       La4
_chemical_formula_sum              "La4"
_cell_length_a       3.79631058
_cell_length_b       3.7963124114957743
_cell_length_c       12.04125753
_cell_angle_alpha    90.0
_cell_angle_beta     90.0
_cell_angle_gamma    120.00000329189716

_space_group_name_H-M_alt    "P 1"
_space_group_IT_number       1

loop_
  _space_group_symop_operation_xyz
  'x, y, z'

loop_
  _atom_site_type_symbol
  _atom_site_label
  _atom_site_symmetry_multiplicity
  _atom_site_fract_x
  _atom_site_fract_y
  _atom_site_fract_z
  _atom_site_occupancy
  La  La1       1.0  0.2869238292980789  0.9301429686525379  0.802238720040036  1.0000
  La  La2       1.0  0.9168041937137161  0.7836450670280586  0.5181245398947922  1.0000
  La  La3       1.0  0.6064098488129712  0.29340996950746145  0.6782669412293378  1.0000
  La  La4       1.0  0.1898622353383233  0.9928020841159402  0.5013697936821955  1.0000
