data_image0
_chemical_formula_structural       La4
_chemical_formula_sum              "La4"
_cell_length_a       3.79631058
_cell_length_b       3.7963124114957743
_cell_length_c       12.04125753
_cell_angle_alpha    90.0
_cell_angle_beta     90.0
_cell_angle_gamma    120.00000329189716

_space_group_name_H-M_alt    "P 1"
_space_group_IT_number       1

loop_
  _space_group_symop_operation_xyz
  'x, y, z'

loop_
  _atom_site_type_symbol
  _atom_site_label
  _atom_site_symmetry_multiplicity
  _atom_site_fract_x
  _atom_site_fract_y
  _atom_site_fract_z
  _atom_site_occupancy
  La  La1       1.0  0.7536066187144179  0.6563947895551543  0.2812575886334505  1.0000
  La  La2       1.0  0.6594958804461468  0.1327006276651179  0.3958214384662234  1.0000
  La  La3       1.0  0.7938774534949555  0.3836182283909806  0.618767825639476  1.0000
  La  La4       1.0  0.7930201032317257  0.82728650399579  0.20415319783104646  1.0000
