data_image0
_chemical_formula_structural       La4
_chemical_formula_sum              "La4"
_cell_length_a       3.79631058
_cell_length_b       3.7963124114957743
_cell_length_c       12.04125753
_cell_angle_alpha    90.0
_cell_angle_beta     90.0
_cell_angle_gamma    120.00000329189716

_space_group_name_H-M_alt    "P 1"
_space_group_IT_number       1

loop_
  _space_group_symop_operation_xyz
  'x, y, z'

loop_
  _atom_site_type_symbol
  _atom_site_label
  _atom_site_symmetry_multiplicity
  _atom_site_fract_x
  _atom_site_fract_y
  _atom_site_fract_z
  _atom_site_occupancy
  La  La1       1.0  0.2577652806866668  0.773751556958775  0.5531945823751063  1.0000
  La  La2       1.0  0.3842754945954323  0.2611905767875733  0.9553952353970003  1.0000
  La  La3       1.0  0.20421231717491217  0.8115267354355551  0.023825902288606933  1.0000
  La  La4       1.0  0.15374682404839857  0.1535311549228382  0.9675843179838735  1.0000
