data_image0
_chemical_formula_structural       La4
_chemical_formula_sum              "La4"
_cell_length_a       3.79631058
_cell_length_b       3.7963124114957743
_cell_length_c       12.04125753
_cell_angle_alpha    90.0
_cell_angle_beta     90.0
_cell_angle_gamma    120.00000329189716

_space_group_name_H-M_alt    "P 1"
_space_group_IT_number       1

loop_
  _space_group_symop_operation_xyz
  'x, y, z'

loop_
  _atom_site_type_symbol
  _atom_site_label
  _atom_site_symmetry_multiplicity
  _atom_site_fract_x
  _atom_site_fract_y
  _atom_site_fract_z
  _atom_site_occupancy
  La  La1       1.0  0.4537558856764248  0.8503541287401362  0.5551590277785161  1.0000
  La  La2       1.0  0.8192910215218507  0.6632012345700282  0.4580409602224611  1.0000
  La  La3       1.0  0.13444118724303378  0.5659766871502292  0.11875751355644582  1.0000
  La  La4       1.0  0.5925119366018805  0.920467940147006  0.3680424914590027  1.0000
