data_image0
_chemical_formula_structural       La4
_chemical_formula_sum              "La4"
_cell_length_a       3.79631058
_cell_length_b       3.7963124114957743
_cell_length_c       12.04125753
_cell_angle_alpha    90.0
_cell_angle_beta     90.0
_cell_angle_gamma    120.00000329189716

_space_group_name_H-M_alt    "P 1"
_space_group_IT_number       1

loop_
  _space_group_symop_operation_xyz
  'x, y, z'

loop_
  _atom_site_type_symbol
  _atom_site_label
  _atom_site_symmetry_multiplicity
  _atom_site_fract_x
  _atom_site_fract_y
  _atom_site_fract_z
  _atom_site_occupancy
  La  La1       1.0  0.4682417761541924  0.2690657032291517  0.08422963725414467  1.0000
  La  La2       1.0  0.17001144891027684  0.03690378219878365  0.4136824544375812  1.0000
  La  La3       1.0  0.31976438570361587  0.03638528853879652  0.04427252268891291  1.0000
  La  La4       1.0  0.041982404948636365  0.6576452304424905  0.9578153859384888  1.0000
