data_image0
_chemical_formula_structural       La4
_chemical_formula_sum              "La4"
_cell_length_a       3.79631058
_cell_length_b       3.7963124114957743
_cell_length_c       12.04125753
_cell_angle_alpha    90.0
_cell_angle_beta     90.0
_cell_angle_gamma    120.00000329189716

_space_group_name_H-M_alt    "P 1"
_space_group_IT_number       1

loop_
  _space_group_symop_operation_xyz
  'x, y, z'

loop_
  _atom_site_type_symbol
  _atom_site_label
  _atom_site_symmetry_multiplicity
  _atom_site_fract_x
  _atom_site_fract_y
  _atom_site_fract_z
  _atom_site_occupancy
  La  La1       1.0  0.5893826353221696  0.30920899558588477  0.14817510758674635  1.0000
  La  La2       1.0  0.13263307432656557  0.5768447877040066  0.25997001437061273  1.0000
  La  La3       1.0  0.1791598839359878  0.16277229268396187  0.9527460359911164  1.0000
  La  La4       1.0  0.09882438756631418  0.9511738923214139  0.13910884436216142  1.0000
