data_image0
_chemical_formula_structural       La4
_chemical_formula_sum              "La4"
_cell_length_a       3.79631058
_cell_length_b       3.7963124114957743
_cell_length_c       12.04125753
_cell_angle_alpha    90.0
_cell_angle_beta     90.0
_cell_angle_gamma    120.00000329189716

_space_group_name_H-M_alt    "P 1"
_space_group_IT_number       1

loop_
  _space_group_symop_operation_xyz
  'x, y, z'

loop_
  _atom_site_type_symbol
  _atom_site_label
  _atom_site_symmetry_multiplicity
  _atom_site_fract_x
  _atom_site_fract_y
  _atom_site_fract_z
  _atom_site_occupancy
  La  La1       1.0  0.3607256102699221  0.7806499150807427  0.7102094637167298  1.0000
  La  La2       1.0  0.6608902218446744  0.17660652349636763  0.8864772821270197  1.0000
  La  La3       1.0  0.5705026895898442  0.3701008343663368  0.34981052060742446  1.0000
  La  La4       1.0  0.40788159202583274  0.6726428238689408  0.5535027267893118  1.0000
