data_image0
_chemical_formula_structural       La4
_chemical_formula_sum              "La4"
_cell_length_a       3.79631058
_cell_length_b       3.7963124114957743
_cell_length_c       12.04125753
_cell_angle_alpha    90.0
_cell_angle_beta     90.0
_cell_angle_gamma    120.00000329189716

_space_group_name_H-M_alt    "P 1"
_space_group_IT_number       1

loop_
  _space_group_symop_operation_xyz
  'x, y, z'

loop_
  _atom_site_type_symbol
  _atom_site_label
  _atom_site_symmetry_multiplicity
  _atom_site_fract_x
  _atom_site_fract_y
  _atom_site_fract_z
  _atom_site_occupancy
  La  La1       1.0  0.8010860268700899  0.6918557581075504  0.9796702526411218  1.0000
  La  La2       1.0  0.39666877670847955  0.7870291227606705  0.5203037507636143  1.0000
  La  La3       1.0  0.14868051235401314  0.8223791318708864  0.4164109460225305  1.0000
  La  La4       1.0  0.6535647563625009  0.6987361580520091  0.5836151134257301  1.0000
