data_image0
_chemical_formula_structural       La4
_chemical_formula_sum              "La4"
_cell_length_a       3.79631058
_cell_length_b       3.7963124114957743
_cell_length_c       12.04125753
_cell_angle_alpha    90.0
_cell_angle_beta     90.0
_cell_angle_gamma    120.00000329189716

_space_group_name_H-M_alt    "P 1"
_space_group_IT_number       1

loop_
  _space_group_symop_operation_xyz
  'x, y, z'

loop_
  _atom_site_type_symbol
  _atom_site_label
  _atom_site_symmetry_multiplicity
  _atom_site_fract_x
  _atom_site_fract_y
  _atom_site_fract_z
  _atom_site_occupancy
  La  La1       1.0  0.08894623789198164  0.9784285699162458  0.7704557134419816  1.0000
  La  La2       1.0  0.24506326696747216  0.8294281687960918  0.9607557595537084  1.0000
  La  La3       1.0  0.011946436916769443  0.8023458506069154  0.9263222388108681  1.0000
  La  La4       1.0  0.6540441761434643  0.3897975144539565  0.8424662777882888  1.0000
