data_image0
_chemical_formula_structural       La4
_chemical_formula_sum              "La4"
_cell_length_a       3.79631058
_cell_length_b       3.7963124114957743
_cell_length_c       12.04125753
_cell_angle_alpha    90.0
_cell_angle_beta     90.0
_cell_angle_gamma    120.00000329189716

_space_group_name_H-M_alt    "P 1"
_space_group_IT_number       1

loop_
  _space_group_symop_operation_xyz
  'x, y, z'

loop_
  _atom_site_type_symbol
  _atom_site_label
  _atom_site_symmetry_multiplicity
  _atom_site_fract_x
  _atom_site_fract_y
  _atom_site_fract_z
  _atom_site_occupancy
  La  La1       1.0  0.30302150715765164  0.5615591870177568  0.36267467063303993  1.0000
  La  La2       1.0  0.3809253048520066  0.9490513536654772  0.7591402670167482  1.0000
  La  La3       1.0  0.1772024431826953  0.18388068814889458  0.9125430918907778  1.0000
  La  La4       1.0  0.13885065548905073  0.30550879000074715  0.465642013425823  1.0000
