data_image0
_chemical_formula_structural       La4
_chemical_formula_sum              "La4"
_cell_length_a       3.79631058
_cell_length_b       3.7963124114957743
_cell_length_c       12.04125753
_cell_angle_alpha    90.0
_cell_angle_beta     90.0
_cell_angle_gamma    120.00000329189716

_space_group_name_H-M_alt    "P 1"
_space_group_IT_number       1

loop_
  _space_group_symop_operation_xyz
  'x, y, z'

loop_
  _atom_site_type_symbol
  _atom_site_label
  _atom_site_symmetry_multiplicity
  _atom_site_fract_x
  _atom_site_fract_y
  _atom_site_fract_z
  _atom_site_occupancy
  La  La1       1.0  0.32896929982111445  0.6246087920787664  0.4179288823123617  1.0000
  La  La2       1.0  0.3077277812031003  0.6339862276185793  0.6978363106031695  1.0000
  La  La3       1.0  0.8406916745958863  0.7406950288991698  0.019787695752428114  1.0000
  La  La4       1.0  0.5226113988528773  0.000710053808781197  0.36444711212610237  1.0000
