data_image0
_chemical_formula_structural       La4
_chemical_formula_sum              "La4"
_cell_length_a       3.79631058
_cell_length_b       3.7963124114957743
_cell_length_c       12.04125753
_cell_angle_alpha    90.0
_cell_angle_beta     90.0
_cell_angle_gamma    120.00000329189716

_space_group_name_H-M_alt    "P 1"
_space_group_IT_number       1

loop_
  _space_group_symop_operation_xyz
  'x, y, z'

loop_
  _atom_site_type_symbol
  _atom_site_label
  _atom_site_symmetry_multiplicity
  _atom_site_fract_x
  _atom_site_fract_y
  _atom_site_fract_z
  _atom_site_occupancy
  La  La1       1.0  0.5858314161718958  0.5316556416082587  0.9720326723023267  1.0000
  La  La2       1.0  0.022050510076549568  0.37247057083526824  0.146001809377728  1.0000
  La  La3       1.0  0.6068237179288882  0.4083047279246177  0.676222263650216  1.0000
  La  La4       1.0  0.7852943498548282  0.6875690273398152  0.7057432582101721  1.0000
