data_image0
_chemical_formula_structural       La4
_chemical_formula_sum              "La4"
_cell_length_a       3.79631058
_cell_length_b       3.7963124114957743
_cell_length_c       12.04125753
_cell_angle_alpha    90.0
_cell_angle_beta     90.0
_cell_angle_gamma    120.00000329189716

_space_group_name_H-M_alt    "P 1"
_space_group_IT_number       1

loop_
  _space_group_symop_operation_xyz
  'x, y, z'

loop_
  _atom_site_type_symbol
  _atom_site_label
  _atom_site_symmetry_multiplicity
  _atom_site_fract_x
  _atom_site_fract_y
  _atom_site_fract_z
  _atom_site_occupancy
  La  La1       1.0  0.9366039142068647  0.9824984444798701  0.3202249812401301  1.0000
  La  La2       1.0  0.6975853647060455  0.03156679723177458  0.010417607707263077  1.0000
  La  La3       1.0  0.2567990684381054  0.8453693329587502  0.6641196714766917  1.0000
  La  La4       1.0  0.10901163243800549  0.14056539480122954  0.5052377432177305  1.0000
