data_image0
_chemical_formula_structural       La4
_chemical_formula_sum              "La4"
_cell_length_a       3.79631058
_cell_length_b       3.7963124114957743
_cell_length_c       12.04125753
_cell_angle_alpha    90.0
_cell_angle_beta     90.0
_cell_angle_gamma    120.00000329189716

_space_group_name_H-M_alt    "P 1"
_space_group_IT_number       1

loop_
  _space_group_symop_operation_xyz
  'x, y, z'

loop_
  _atom_site_type_symbol
  _atom_site_label
  _atom_site_symmetry_multiplicity
  _atom_site_fract_x
  _atom_site_fract_y
  _atom_site_fract_z
  _atom_site_occupancy
  La  La1       1.0  0.5201057978386059  0.7573497437315133  0.013351408693847766  1.0000
  La  La2       1.0  0.0542137228732793  0.14516604226096153  0.7861855026222431  1.0000
  La  La3       1.0  0.4380365227746825  0.26576525255639716  0.9921731748958696  1.0000
  La  La4       1.0  0.9876438665062075  0.8317189930115951  0.70828995961925  1.0000
