data_image0
_chemical_formula_structural       La4
_chemical_formula_sum              "La4"
_cell_length_a       3.79631058
_cell_length_b       3.7963124114957743
_cell_length_c       12.04125753
_cell_angle_alpha    90.0
_cell_angle_beta     90.0
_cell_angle_gamma    120.00000329189716

_space_group_name_H-M_alt    "P 1"
_space_group_IT_number       1

loop_
  _space_group_symop_operation_xyz
  'x, y, z'

loop_
  _atom_site_type_symbol
  _atom_site_label
  _atom_site_symmetry_multiplicity
  _atom_site_fract_x
  _atom_site_fract_y
  _atom_site_fract_z
  _atom_site_occupancy
  La  La1       1.0  0.024605574167602562  0.9794119135465476  0.5124426610021335  1.0000
  La  La2       1.0  0.9867600573607832  0.19128456697715723  0.09632305050217038  1.0000
  La  La3       1.0  0.7233548221177308  0.29805610880676525  0.19745006943268614  1.0000
  La  La4       1.0  0.26527950007467993  0.5312474953014963  0.6937842632526179  1.0000
