data_image0
_chemical_formula_structural       La4
_chemical_formula_sum              "La4"
_cell_length_a       3.79631058
_cell_length_b       3.7963124114957743
_cell_length_c       12.04125753
_cell_angle_alpha    90.0
_cell_angle_beta     90.0
_cell_angle_gamma    120.00000329189716

_space_group_name_H-M_alt    "P 1"
_space_group_IT_number       1

loop_
  _space_group_symop_operation_xyz
  'x, y, z'

loop_
  _atom_site_type_symbol
  _atom_site_label
  _atom_site_symmetry_multiplicity
  _atom_site_fract_x
  _atom_site_fract_y
  _atom_site_fract_z
  _atom_site_occupancy
  La  La1       1.0  0.09557059189860073  0.845157380523732  0.38655433455785504  1.0000
  La  La2       1.0  0.08297786266175144  0.9817780555592295  0.9976397928508763  1.0000
  La  La3       1.0  0.37366952882525695  0.379875409740869  0.07478802837783512  1.0000
  La  La4       1.0  0.44778195644375884  0.7931892302238275  0.0410178878062295  1.0000
