data_image0
_chemical_formula_structural       La4
_chemical_formula_sum              "La4"
_cell_length_a       3.79631058
_cell_length_b       3.7963124114957743
_cell_length_c       12.04125753
_cell_angle_alpha    90.0
_cell_angle_beta     90.0
_cell_angle_gamma    120.00000329189716

_space_group_name_H-M_alt    "P 1"
_space_group_IT_number       1

loop_
  _space_group_symop_operation_xyz
  'x, y, z'

loop_
  _atom_site_type_symbol
  _atom_site_label
  _atom_site_symmetry_multiplicity
  _atom_site_fract_x
  _atom_site_fract_y
  _atom_site_fract_z
  _atom_site_occupancy
  La  La1       1.0  0.48125565336549236  0.3248035554464668  0.6802390964725262  1.0000
  La  La2       1.0  0.7452382954012684  0.9537058808603591  0.7019446857908251  1.0000
  La  La3       1.0  0.7657352580958481  0.2823001534726357  0.8332512098231875  1.0000
  La  La4       1.0  0.007770825978554274  0.43919059698040286  0.28456509117197104  1.0000
