data_image0
_chemical_formula_structural       La4
_chemical_formula_sum              "La4"
_cell_length_a       3.79631058
_cell_length_b       3.7963124114957743
_cell_length_c       12.04125753
_cell_angle_alpha    90.0
_cell_angle_beta     90.0
_cell_angle_gamma    120.00000329189716

_space_group_name_H-M_alt    "P 1"
_space_group_IT_number       1

loop_
  _space_group_symop_operation_xyz
  'x, y, z'

loop_
  _atom_site_type_symbol
  _atom_site_label
  _atom_site_symmetry_multiplicity
  _atom_site_fract_x
  _atom_site_fract_y
  _atom_site_fract_z
  _atom_site_occupancy
  La  La1       1.0  0.44844972512862924  0.8035438104511572  0.05902681236696772  1.0000
  La  La2       1.0  0.7738529918187105  0.3277228007209887  0.24263847473923228  1.0000
  La  La3       1.0  0.5639621310511451  0.5191270322670167  0.43990231476201297  1.0000
  La  La4       1.0  0.21373515648411612  0.34960651104175877  0.7584324801186471  1.0000
