data_image0
_chemical_formula_structural       La4
_chemical_formula_sum              "La4"
_cell_length_a       3.79631058
_cell_length_b       3.7963124114957743
_cell_length_c       12.04125753
_cell_angle_alpha    90.0
_cell_angle_beta     90.0
_cell_angle_gamma    120.00000329189716

_space_group_name_H-M_alt    "P 1"
_space_group_IT_number       1

loop_
  _space_group_symop_operation_xyz
  'x, y, z'

loop_
  _atom_site_type_symbol
  _atom_site_label
  _atom_site_symmetry_multiplicity
  _atom_site_fract_x
  _atom_site_fract_y
  _atom_site_fract_z
  _atom_site_occupancy
  La  La1       1.0  0.8209153793690955  0.6297879713142809  0.37772258833334504  1.0000
  La  La2       1.0  0.915541463076491  0.20453423888311306  0.6167611319381896  1.0000
  La  La3       1.0  0.1711727471272937  0.7084698708947617  0.9390149290732696  1.0000
  La  La4       1.0  0.09237032172805204  0.45720793679583593  0.5665013948774678  1.0000
