data_image0
_chemical_formula_structural       La4
_chemical_formula_sum              "La4"
_cell_length_a       3.79631058
_cell_length_b       3.7963124114957743
_cell_length_c       12.04125753
_cell_angle_alpha    90.0
_cell_angle_beta     90.0
_cell_angle_gamma    120.00000329189716

_space_group_name_H-M_alt    "P 1"
_space_group_IT_number       1

loop_
  _space_group_symop_operation_xyz
  'x, y, z'

loop_
  _atom_site_type_symbol
  _atom_site_label
  _atom_site_symmetry_multiplicity
  _atom_site_fract_x
  _atom_site_fract_y
  _atom_site_fract_z
  _atom_site_occupancy
  La  La1       1.0  0.07162414365846992  0.896796864723683  0.1653784420949309  1.0000
  La  La2       1.0  0.9923420853822376  0.34861489174258775  0.22911612885718205  1.0000
  La  La3       1.0  0.35481132831538886  0.020637689069122445  0.004787848744800094  1.0000
  La  La4       1.0  0.5812224320299215  0.7339506498036847  0.10071762931570305  1.0000
