data_image0
_chemical_formula_structural       La4
_chemical_formula_sum              "La4"
_cell_length_a       3.79631058
_cell_length_b       3.7963124114957743
_cell_length_c       12.04125753
_cell_angle_alpha    90.0
_cell_angle_beta     90.0
_cell_angle_gamma    120.00000329189716

_space_group_name_H-M_alt    "P 1"
_space_group_IT_number       1

loop_
  _space_group_symop_operation_xyz
  'x, y, z'

loop_
  _atom_site_type_symbol
  _atom_site_label
  _atom_site_symmetry_multiplicity
  _atom_site_fract_x
  _atom_site_fract_y
  _atom_site_fract_z
  _atom_site_occupancy
  La  La1       1.0  0.3216944411228173  0.07946697896999488  0.08187001062507626  1.0000
  La  La2       1.0  0.6660285641317074  0.6666202924665559  0.7879983445008178  1.0000
  La  La3       1.0  0.8622087944268039  0.33521975756368505  0.593319654912611  1.0000
  La  La4       1.0  0.15006831251312036  0.9186929939107813  0.03681198497507232  1.0000
