data_image0
_chemical_formula_structural       La4
_chemical_formula_sum              "La4"
_cell_length_a       3.79631058
_cell_length_b       3.7963124114957743
_cell_length_c       12.04125753
_cell_angle_alpha    90.0
_cell_angle_beta     90.0
_cell_angle_gamma    120.00000329189716

_space_group_name_H-M_alt    "P 1"
_space_group_IT_number       1

loop_
  _space_group_symop_operation_xyz
  'x, y, z'

loop_
  _atom_site_type_symbol
  _atom_site_label
  _atom_site_symmetry_multiplicity
  _atom_site_fract_x
  _atom_site_fract_y
  _atom_site_fract_z
  _atom_site_occupancy
  La  La1       1.0  0.3040479626997392  0.0967726253582839  0.5703852553998061  1.0000
  La  La2       1.0  0.01610034248377623  0.993330075640424  0.5648401108826927  1.0000
  La  La3       1.0  0.6662320154929853  0.3489193215005528  0.004357117148514611  1.0000
  La  La4       1.0  0.013619738965861217  0.5609779743902052  0.360417507854518  1.0000
