data_image0
_chemical_formula_structural       La4
_chemical_formula_sum              "La4"
_cell_length_a       3.79631058
_cell_length_b       3.7963124114957743
_cell_length_c       12.04125753
_cell_angle_alpha    90.0
_cell_angle_beta     90.0
_cell_angle_gamma    120.00000329189716

_space_group_name_H-M_alt    "P 1"
_space_group_IT_number       1

loop_
  _space_group_symop_operation_xyz
  'x, y, z'

loop_
  _atom_site_type_symbol
  _atom_site_label
  _atom_site_symmetry_multiplicity
  _atom_site_fract_x
  _atom_site_fract_y
  _atom_site_fract_z
  _atom_site_occupancy
  La  La1       1.0  0.19400603131454353  0.9135684072036874  0.3703689366168712  1.0000
  La  La2       1.0  0.33058835078772475  0.3215240600918676  0.0316083827823288  1.0000
  La  La3       1.0  0.6421483086598672  0.934769360085804  0.15722589350437577  1.0000
  La  La4       1.0  0.833257335708268  0.8301381605011748  0.9407967849123439  1.0000
