data_image0
_chemical_formula_structural       La4
_chemical_formula_sum              "La4"
_cell_length_a       3.79631058
_cell_length_b       3.7963124114957743
_cell_length_c       12.04125753
_cell_angle_alpha    90.0
_cell_angle_beta     90.0
_cell_angle_gamma    120.00000329189716

_space_group_name_H-M_alt    "P 1"
_space_group_IT_number       1

loop_
  _space_group_symop_operation_xyz
  'x, y, z'

loop_
  _atom_site_type_symbol
  _atom_site_label
  _atom_site_symmetry_multiplicity
  _atom_site_fract_x
  _atom_site_fract_y
  _atom_site_fract_z
  _atom_site_occupancy
  La  La1       1.0  0.3854096776433966  0.08176152849906071  0.2408196077288025  1.0000
  La  La2       1.0  0.20180901867412615  0.8669840415250274  0.049836768304966306  1.0000
  La  La3       1.0  0.6113035679704382  0.8026336255055568  0.35831106867048296  1.0000
  La  La4       1.0  0.801477736329173  0.24862096195094363  0.8510326381151234  1.0000
