data_image0
_chemical_formula_structural       La4
_chemical_formula_sum              "La4"
_cell_length_a       3.79631058
_cell_length_b       3.7963124114957743
_cell_length_c       12.04125753
_cell_angle_alpha    90.0
_cell_angle_beta     90.0
_cell_angle_gamma    120.00000329189716

_space_group_name_H-M_alt    "P 1"
_space_group_IT_number       1

loop_
  _space_group_symop_operation_xyz
  'x, y, z'

loop_
  _atom_site_type_symbol
  _atom_site_label
  _atom_site_symmetry_multiplicity
  _atom_site_fract_x
  _atom_site_fract_y
  _atom_site_fract_z
  _atom_site_occupancy
  La  La1       1.0  0.7662848351198983  0.010816391603562181  0.7350756315904503  1.0000
  La  La2       1.0  0.4249647551101896  0.4351383758472851  0.9952302953288925  1.0000
  La  La3       1.0  0.8093142261167046  0.8409728419567717  0.9702771690468988  1.0000
  La  La4       1.0  0.9994362107075219  0.7130724971393541  0.7994169534101636  1.0000
