data_image0
_chemical_formula_structural       La4
_chemical_formula_sum              "La4"
_cell_length_a       3.79631058
_cell_length_b       3.7963124114957743
_cell_length_c       12.04125753
_cell_angle_alpha    90.0
_cell_angle_beta     90.0
_cell_angle_gamma    120.00000329189716

_space_group_name_H-M_alt    "P 1"
_space_group_IT_number       1

loop_
  _space_group_symop_operation_xyz
  'x, y, z'

loop_
  _atom_site_type_symbol
  _atom_site_label
  _atom_site_symmetry_multiplicity
  _atom_site_fract_x
  _atom_site_fract_y
  _atom_site_fract_z
  _atom_site_occupancy
  La  La1       1.0  0.8493543067730083  0.4598088384187271  0.41869373273354693  1.0000
  La  La2       1.0  0.2585047208464213  0.5728376112143456  0.3151182029949249  1.0000
  La  La3       1.0  0.647991130832442  0.8181968168552691  0.9659370601824073  1.0000
  La  La4       1.0  0.24414975652682713  0.14915675315049626  0.8002510496284057  1.0000
