data_image0
_chemical_formula_structural       La4
_chemical_formula_sum              "La4"
_cell_length_a       3.79631058
_cell_length_b       3.7963124114957743
_cell_length_c       12.04125753
_cell_angle_alpha    90.0
_cell_angle_beta     90.0
_cell_angle_gamma    120.00000329189716

_space_group_name_H-M_alt    "P 1"
_space_group_IT_number       1

loop_
  _space_group_symop_operation_xyz
  'x, y, z'

loop_
  _atom_site_type_symbol
  _atom_site_label
  _atom_site_symmetry_multiplicity
  _atom_site_fract_x
  _atom_site_fract_y
  _atom_site_fract_z
  _atom_site_occupancy
  La  La1       1.0  0.35247025807446875  0.009202695550341922  0.6044718083996674  1.0000
  La  La2       1.0  0.9525093194276453  0.8080644923489171  0.4769710258958102  1.0000
  La  La3       1.0  0.7792200859121919  0.8648059286136913  0.9032623031923963  1.0000
  La  La4       1.0  0.9158004003266242  0.3179268830201707  0.5152948539263167  1.0000
