data_image0
_chemical_formula_structural       La4
_chemical_formula_sum              "La4"
_cell_length_a       3.79631058
_cell_length_b       3.7963124114957743
_cell_length_c       12.04125753
_cell_angle_alpha    90.0
_cell_angle_beta     90.0
_cell_angle_gamma    120.00000329189716

_space_group_name_H-M_alt    "P 1"
_space_group_IT_number       1

loop_
  _space_group_symop_operation_xyz
  'x, y, z'

loop_
  _atom_site_type_symbol
  _atom_site_label
  _atom_site_symmetry_multiplicity
  _atom_site_fract_x
  _atom_site_fract_y
  _atom_site_fract_z
  _atom_site_occupancy
  La  La1       1.0  0.9558470859371901  0.5155541212403687  0.15496682107099513  1.0000
  La  La2       1.0  0.1955747190646867  0.10733619265778804  0.20505738639662052  1.0000
  La  La3       1.0  0.4615819589070529  0.4879465343036653  0.6455729209978855  1.0000
  La  La4       1.0  0.3869962990248972  0.8891633176238276  0.4944029318738714  1.0000
