data_image0
_chemical_formula_structural       La4
_chemical_formula_sum              "La4"
_cell_length_a       3.79631058
_cell_length_b       3.7963124114957743
_cell_length_c       12.04125753
_cell_angle_alpha    90.0
_cell_angle_beta     90.0
_cell_angle_gamma    120.00000329189716

_space_group_name_H-M_alt    "P 1"
_space_group_IT_number       1

loop_
  _space_group_symop_operation_xyz
  'x, y, z'

loop_
  _atom_site_type_symbol
  _atom_site_label
  _atom_site_symmetry_multiplicity
  _atom_site_fract_x
  _atom_site_fract_y
  _atom_site_fract_z
  _atom_site_occupancy
  La  La1       1.0  0.0325563078327491  0.08792416352780741  0.11962508439112973  1.0000
  La  La2       1.0  0.047921606142574014  0.8191208337588596  0.4662943415483112  1.0000
  La  La3       1.0  0.07650243662168776  0.9800039108021856  0.36644354756265884  1.0000
  La  La4       1.0  0.8430197522339129  0.11295117823525658  0.5476370132981669  1.0000
