data_image0
_chemical_formula_structural       La4
_chemical_formula_sum              "La4"
_cell_length_a       3.79631058
_cell_length_b       3.7963124114957743
_cell_length_c       12.04125753
_cell_angle_alpha    90.0
_cell_angle_beta     90.0
_cell_angle_gamma    120.00000329189716

_space_group_name_H-M_alt    "P 1"
_space_group_IT_number       1

loop_
  _space_group_symop_operation_xyz
  'x, y, z'

loop_
  _atom_site_type_symbol
  _atom_site_label
  _atom_site_symmetry_multiplicity
  _atom_site_fract_x
  _atom_site_fract_y
  _atom_site_fract_z
  _atom_site_occupancy
  La  La1       1.0  0.3103557410548978  0.38500447401680926  0.7408432764659079  1.0000
  La  La2       1.0  0.40925667453456605  0.5885919398044734  0.5919045943490202  1.0000
  La  La3       1.0  0.3873424218496957  0.8291635328840226  0.9069536800206994  1.0000
  La  La4       1.0  0.8930451931716057  0.19724004040372378  0.2602984534297037  1.0000
