data_image0
_chemical_formula_structural       La4
_chemical_formula_sum              "La4"
_cell_length_a       3.79631058
_cell_length_b       3.7963124114957743
_cell_length_c       12.04125753
_cell_angle_alpha    90.0
_cell_angle_beta     90.0
_cell_angle_gamma    120.00000329189716

_space_group_name_H-M_alt    "P 1"
_space_group_IT_number       1

loop_
  _space_group_symop_operation_xyz
  'x, y, z'

loop_
  _atom_site_type_symbol
  _atom_site_label
  _atom_site_symmetry_multiplicity
  _atom_site_fract_x
  _atom_site_fract_y
  _atom_site_fract_z
  _atom_site_occupancy
  La  La1       1.0  0.9428993496791804  0.6799412872801938  0.12290137191398998  1.0000
  La  La2       1.0  0.16767643436965596  0.09424941580186576  0.42013570407002776  1.0000
  La  La3       1.0  0.05425856505369531  0.12110822557246892  0.8009513130590871  1.0000
  La  La4       1.0  0.8351657089766853  0.10470122538530902  0.15601166295150293  1.0000
