data_image0
_chemical_formula_structural       La4
_chemical_formula_sum              "La4"
_cell_length_a       3.79631058
_cell_length_b       3.7963124114957743
_cell_length_c       12.04125753
_cell_angle_alpha    90.0
_cell_angle_beta     90.0
_cell_angle_gamma    120.00000329189716

_space_group_name_H-M_alt    "P 1"
_space_group_IT_number       1

loop_
  _space_group_symop_operation_xyz
  'x, y, z'

loop_
  _atom_site_type_symbol
  _atom_site_label
  _atom_site_symmetry_multiplicity
  _atom_site_fract_x
  _atom_site_fract_y
  _atom_site_fract_z
  _atom_site_occupancy
  La  La1       1.0  0.8041266523704884  0.13405852419754272  0.5704601751867004  1.0000
  La  La2       1.0  0.655326270632397  0.7509554411660124  0.017120002396702416  1.0000
  La  La3       1.0  0.2212859465267678  0.5826578923407113  0.9725046703517988  1.0000
  La  La4       1.0  0.3192611921358577  0.5323283263918359  0.9399152124864774  1.0000
