data_image0
_chemical_formula_structural       La4
_chemical_formula_sum              "La4"
_cell_length_a       3.79631058
_cell_length_b       3.7963124114957743
_cell_length_c       12.04125753
_cell_angle_alpha    90.0
_cell_angle_beta     90.0
_cell_angle_gamma    120.00000329189716

_space_group_name_H-M_alt    "P 1"
_space_group_IT_number       1

loop_
  _space_group_symop_operation_xyz
  'x, y, z'

loop_
  _atom_site_type_symbol
  _atom_site_label
  _atom_site_symmetry_multiplicity
  _atom_site_fract_x
  _atom_site_fract_y
  _atom_site_fract_z
  _atom_site_occupancy
  La  La1       1.0  0.971316752376266  0.5011011010184401  0.7753924252475288  1.0000
  La  La2       1.0  0.7493758707889713  0.325691220670393  0.8582894383929089  1.0000
  La  La3       1.0  0.7400588421414673  0.39920055776820007  0.22120821899525245  1.0000
  La  La4       1.0  0.5392485776140852  0.7740071063965601  0.6451099079812743  1.0000
