data_image0
_chemical_formula_structural       La4
_chemical_formula_sum              "La4"
_cell_length_a       3.79631058
_cell_length_b       3.7963124114957743
_cell_length_c       12.04125753
_cell_angle_alpha    90.0
_cell_angle_beta     90.0
_cell_angle_gamma    120.00000329189716

_space_group_name_H-M_alt    "P 1"
_space_group_IT_number       1

loop_
  _space_group_symop_operation_xyz
  'x, y, z'

loop_
  _atom_site_type_symbol
  _atom_site_label
  _atom_site_symmetry_multiplicity
  _atom_site_fract_x
  _atom_site_fract_y
  _atom_site_fract_z
  _atom_site_occupancy
  La  La1       1.0  0.9704526603524641  0.4751696902913416  0.6190981150247827  1.0000
  La  La2       1.0  0.5753618000107878  0.5817133503563932  0.2621017708900347  1.0000
  La  La3       1.0  0.7145758562318467  0.5312348249083652  0.5506622740034874  1.0000
  La  La4       1.0  0.7396097432311279  0.41188229734984994  0.06813789680812832  1.0000
