data_image0
_chemical_formula_structural       La4
_chemical_formula_sum              "La4"
_cell_length_a       3.79631058
_cell_length_b       3.7963124114957743
_cell_length_c       12.04125753
_cell_angle_alpha    90.0
_cell_angle_beta     90.0
_cell_angle_gamma    120.00000329189716

_space_group_name_H-M_alt    "P 1"
_space_group_IT_number       1

loop_
  _space_group_symop_operation_xyz
  'x, y, z'

loop_
  _atom_site_type_symbol
  _atom_site_label
  _atom_site_symmetry_multiplicity
  _atom_site_fract_x
  _atom_site_fract_y
  _atom_site_fract_z
  _atom_site_occupancy
  La  La1       1.0  0.7289910907136687  0.3431520023939374  0.2333537110637649  1.0000
  La  La2       1.0  0.5070682771106254  0.9378834382735253  0.23132173474311687  1.0000
  La  La3       1.0  0.18845611539105533  0.9995083137501322  0.7325773414912707  1.0000
  La  La4       1.0  0.5754844961219696  0.7194563412157677  0.30274725986240814  1.0000
