data_image0
_chemical_formula_structural       La4
_chemical_formula_sum              "La4"
_cell_length_a       3.79631058
_cell_length_b       3.7963124114957743
_cell_length_c       12.04125753
_cell_angle_alpha    90.0
_cell_angle_beta     90.0
_cell_angle_gamma    120.00000329189716

_space_group_name_H-M_alt    "P 1"
_space_group_IT_number       1

loop_
  _space_group_symop_operation_xyz
  'x, y, z'

loop_
  _atom_site_type_symbol
  _atom_site_label
  _atom_site_symmetry_multiplicity
  _atom_site_fract_x
  _atom_site_fract_y
  _atom_site_fract_z
  _atom_site_occupancy
  La  La1       1.0  0.006527032073152306  0.6576152832775559  0.9062323359109588  1.0000
  La  La2       1.0  0.2368308555669314  0.3485950932688091  0.2797197455090348  1.0000
  La  La3       1.0  0.16145701606629004  0.041367124023071966  0.19334569776333393  1.0000
  La  La4       1.0  0.5951850137050272  0.9524225526033341  0.12070226949993934  1.0000
