data_image0
_chemical_formula_structural       La4
_chemical_formula_sum              "La4"
_cell_length_a       3.79631058
_cell_length_b       3.7963124114957743
_cell_length_c       12.04125753
_cell_angle_alpha    90.0
_cell_angle_beta     90.0
_cell_angle_gamma    120.00000329189716

_space_group_name_H-M_alt    "P 1"
_space_group_IT_number       1

loop_
  _space_group_symop_operation_xyz
  'x, y, z'

loop_
  _atom_site_type_symbol
  _atom_site_label
  _atom_site_symmetry_multiplicity
  _atom_site_fract_x
  _atom_site_fract_y
  _atom_site_fract_z
  _atom_site_occupancy
  La  La1       1.0  0.4011442538481722  0.4814748879168822  0.2460929391042157  1.0000
  La  La2       1.0  0.588483237980375  0.08052887734929737  0.8859103919281003  1.0000
  La  La3       1.0  0.36198351921575167  0.1836531127755734  0.1042180706332898  1.0000
  La  La4       1.0  0.6483891469079008  0.25434322849830693  0.26377859850341245  1.0000
