data_image0
_chemical_formula_structural       La4
_chemical_formula_sum              "La4"
_cell_length_a       3.79631058
_cell_length_b       3.7963124114957743
_cell_length_c       12.04125753
_cell_angle_alpha    90.0
_cell_angle_beta     90.0
_cell_angle_gamma    120.00000329189716

_space_group_name_H-M_alt    "P 1"
_space_group_IT_number       1

loop_
  _space_group_symop_operation_xyz
  'x, y, z'

loop_
  _atom_site_type_symbol
  _atom_site_label
  _atom_site_symmetry_multiplicity
  _atom_site_fract_x
  _atom_site_fract_y
  _atom_site_fract_z
  _atom_site_occupancy
  La  La1       1.0  0.5396727046009744  0.019106765662955105  0.017303388566496825  1.0000
  La  La2       1.0  0.5721254469067496  0.42604963945116303  0.8321988269755345  1.0000
  La  La3       1.0  0.09051941437043087  0.9690163362822424  0.692194966449029  1.0000
  La  La4       1.0  0.7976824573406089  0.5858272634364994  0.9583028185276207  1.0000
