data_image0
_chemical_formula_structural       La4
_chemical_formula_sum              "La4"
_cell_length_a       3.79631058
_cell_length_b       3.7963124114957743
_cell_length_c       12.04125753
_cell_angle_alpha    90.0
_cell_angle_beta     90.0
_cell_angle_gamma    120.00000329189716

_space_group_name_H-M_alt    "P 1"
_space_group_IT_number       1

loop_
  _space_group_symop_operation_xyz
  'x, y, z'

loop_
  _atom_site_type_symbol
  _atom_site_label
  _atom_site_symmetry_multiplicity
  _atom_site_fract_x
  _atom_site_fract_y
  _atom_site_fract_z
  _atom_site_occupancy
  La  La1       1.0  0.9071052387554062  0.5206604675960806  0.9780484165885452  1.0000
  La  La2       1.0  0.28059995830841444  0.7020602182718267  0.16544905333470122  1.0000
  La  La3       1.0  0.15273793757584642  0.33854928329181355  0.8802553769101396  1.0000
  La  La4       1.0  0.6595569876839793  0.4387300877515088  0.47624715651686245  1.0000
