data_image0
_chemical_formula_structural       La4
_chemical_formula_sum              "La4"
_cell_length_a       3.79631058
_cell_length_b       3.7963124114957743
_cell_length_c       12.04125753
_cell_angle_alpha    90.0
_cell_angle_beta     90.0
_cell_angle_gamma    120.00000329189716

_space_group_name_H-M_alt    "P 1"
_space_group_IT_number       1

loop_
  _space_group_symop_operation_xyz
  'x, y, z'

loop_
  _atom_site_type_symbol
  _atom_site_label
  _atom_site_symmetry_multiplicity
  _atom_site_fract_x
  _atom_site_fract_y
  _atom_site_fract_z
  _atom_site_occupancy
  La  La1       1.0  0.6476921224583236  0.8506634435817126  0.018946862322288816  1.0000
  La  La2       1.0  0.9715509204604595  0.5619042290124021  0.7280175115203624  1.0000
  La  La3       1.0  0.7009708166132498  0.29771890893301567  0.3395484248123084  1.0000
  La  La4       1.0  0.6797862405426722  0.28971349965862814  0.4134871891576042  1.0000
