data_image0
_chemical_formula_structural       La4
_chemical_formula_sum              "La4"
_cell_length_a       3.79631058
_cell_length_b       3.7963124114957743
_cell_length_c       12.04125753
_cell_angle_alpha    90.0
_cell_angle_beta     90.0
_cell_angle_gamma    120.00000329189716

_space_group_name_H-M_alt    "P 1"
_space_group_IT_number       1

loop_
  _space_group_symop_operation_xyz
  'x, y, z'

loop_
  _atom_site_type_symbol
  _atom_site_label
  _atom_site_symmetry_multiplicity
  _atom_site_fract_x
  _atom_site_fract_y
  _atom_site_fract_z
  _atom_site_occupancy
  La  La1       1.0  0.6064648883008554  0.37544094970843744  0.3128626567548678  1.0000
  La  La2       1.0  0.7273254195192873  0.6533141012080028  0.4816576043034564  1.0000
  La  La3       1.0  0.12773304843656597  0.5170902810061762  0.231842124054551  1.0000
  La  La4       1.0  0.5384765560587059  0.4541547174479881  0.47363766124971685  1.0000
