data_image0
_chemical_formula_structural       La4
_chemical_formula_sum              "La4"
_cell_length_a       3.79631058
_cell_length_b       3.7963124114957743
_cell_length_c       12.04125753
_cell_angle_alpha    90.0
_cell_angle_beta     90.0
_cell_angle_gamma    120.00000329189716

_space_group_name_H-M_alt    "P 1"
_space_group_IT_number       1

loop_
  _space_group_symop_operation_xyz
  'x, y, z'

loop_
  _atom_site_type_symbol
  _atom_site_label
  _atom_site_symmetry_multiplicity
  _atom_site_fract_x
  _atom_site_fract_y
  _atom_site_fract_z
  _atom_site_occupancy
  La  La1       1.0  0.2757684829278828  0.7068329390572243  0.3930813198567611  1.0000
  La  La2       1.0  0.2450068144279669  0.4573450888502899  0.14205165051290236  1.0000
  La  La3       1.0  0.8263420463971034  0.6632587695598353  0.9195896195465867  1.0000
  La  La4       1.0  0.6528828123857888  0.17256331002724323  0.04527740999453034  1.0000
