data_image0
_chemical_formula_structural       La4
_chemical_formula_sum              "La4"
_cell_length_a       3.79631058
_cell_length_b       3.7963124114957743
_cell_length_c       12.04125753
_cell_angle_alpha    90.0
_cell_angle_beta     90.0
_cell_angle_gamma    120.00000329189716

_space_group_name_H-M_alt    "P 1"
_space_group_IT_number       1

loop_
  _space_group_symop_operation_xyz
  'x, y, z'

loop_
  _atom_site_type_symbol
  _atom_site_label
  _atom_site_symmetry_multiplicity
  _atom_site_fract_x
  _atom_site_fract_y
  _atom_site_fract_z
  _atom_site_occupancy
  La  La1       1.0  0.23335873834094922  0.5731596026016494  0.41909632192101753  1.0000
  La  La2       1.0  0.2905447019644569  0.7692199985664976  0.042869914590797364  1.0000
  La  La3       1.0  0.6779249086366086  0.7364006656453108  0.5620555116138335  1.0000
  La  La4       1.0  0.798171661944993  0.9212198515975558  0.4759783353381679  1.0000
