data_image0
_chemical_formula_structural       La4
_chemical_formula_sum              "La4"
_cell_length_a       3.79631058
_cell_length_b       3.7963124114957743
_cell_length_c       12.04125753
_cell_angle_alpha    90.0
_cell_angle_beta     90.0
_cell_angle_gamma    120.00000329189716

_space_group_name_H-M_alt    "P 1"
_space_group_IT_number       1

loop_
  _space_group_symop_operation_xyz
  'x, y, z'

loop_
  _atom_site_type_symbol
  _atom_site_label
  _atom_site_symmetry_multiplicity
  _atom_site_fract_x
  _atom_site_fract_y
  _atom_site_fract_z
  _atom_site_occupancy
  La  La1       1.0  0.362688054505905  0.11043974136997514  0.32659020446951814  1.0000
  La  La2       1.0  0.26810543502842243  0.8100578305247748  0.7545317045590879  1.0000
  La  La3       1.0  0.16353849809616072  0.4893467195257841  0.08111578834590061  1.0000
  La  La4       1.0  0.20566816842823066  0.5901558134142846  0.3377623030916501  1.0000
