data_image0
_chemical_formula_structural       La4
_chemical_formula_sum              "La4"
_cell_length_a       3.79631058
_cell_length_b       3.7963124114957743
_cell_length_c       12.04125753
_cell_angle_alpha    90.0
_cell_angle_beta     90.0
_cell_angle_gamma    120.00000329189716

_space_group_name_H-M_alt    "P 1"
_space_group_IT_number       1

loop_
  _space_group_symop_operation_xyz
  'x, y, z'

loop_
  _atom_site_type_symbol
  _atom_site_label
  _atom_site_symmetry_multiplicity
  _atom_site_fract_x
  _atom_site_fract_y
  _atom_site_fract_z
  _atom_site_occupancy
  La  La1       1.0  0.9464130774916271  0.508848763910251  0.8906569717173909  1.0000
  La  La2       1.0  0.12992088012168246  0.6571747613451073  0.4405020677820515  1.0000
  La  La3       1.0  0.4211255001010388  0.42205409101619606  0.006382109056217868  1.0000
  La  La4       1.0  0.5025404514755392  0.4119224030097399  0.1624588932788753  1.0000
