data_image0
_chemical_formula_structural       La4
_chemical_formula_sum              "La4"
_cell_length_a       3.79631058
_cell_length_b       3.7963124114957743
_cell_length_c       12.04125753
_cell_angle_alpha    90.0
_cell_angle_beta     90.0
_cell_angle_gamma    120.00000329189716

_space_group_name_H-M_alt    "P 1"
_space_group_IT_number       1

loop_
  _space_group_symop_operation_xyz
  'x, y, z'

loop_
  _atom_site_type_symbol
  _atom_site_label
  _atom_site_symmetry_multiplicity
  _atom_site_fract_x
  _atom_site_fract_y
  _atom_site_fract_z
  _atom_site_occupancy
  La  La1       1.0  0.29444889911578365  0.9696285101580555  0.08450479537606848  1.0000
  La  La2       1.0  0.4741262754253368  0.5276932878533294  0.5475478770926716  1.0000
  La  La3       1.0  0.20455034517019044  0.5661304946830175  0.36413413780076653  1.0000
  La  La4       1.0  0.02687458443094437  0.9365477953381642  0.503813176142045  1.0000
