data_image0
_chemical_formula_structural       La4
_chemical_formula_sum              "La4"
_cell_length_a       3.79631058
_cell_length_b       3.7963124114957743
_cell_length_c       12.04125753
_cell_angle_alpha    90.0
_cell_angle_beta     90.0
_cell_angle_gamma    120.00000329189716

_space_group_name_H-M_alt    "P 1"
_space_group_IT_number       1

loop_
  _space_group_symop_operation_xyz
  'x, y, z'

loop_
  _atom_site_type_symbol
  _atom_site_label
  _atom_site_symmetry_multiplicity
  _atom_site_fract_x
  _atom_site_fract_y
  _atom_site_fract_z
  _atom_site_occupancy
  La  La1       1.0  0.2065112749361857  0.21364850526929313  0.2536228558801099  1.0000
  La  La2       1.0  0.07101897741586605  0.13490124631931621  0.9932839354079058  1.0000
  La  La3       1.0  0.8085255528372457  0.8430781106247824  0.06868739909617005  1.0000
  La  La4       1.0  0.9139443549113793  0.808372244973615  0.1844058093891947  1.0000
