data_image0
_chemical_formula_structural       La4
_chemical_formula_sum              "La4"
_cell_length_a       3.79631058
_cell_length_b       3.7963124114957743
_cell_length_c       12.04125753
_cell_angle_alpha    90.0
_cell_angle_beta     90.0
_cell_angle_gamma    120.00000329189716

_space_group_name_H-M_alt    "P 1"
_space_group_IT_number       1

loop_
  _space_group_symop_operation_xyz
  'x, y, z'

loop_
  _atom_site_type_symbol
  _atom_site_label
  _atom_site_symmetry_multiplicity
  _atom_site_fract_x
  _atom_site_fract_y
  _atom_site_fract_z
  _atom_site_occupancy
  La  La1       1.0  0.3076395666164906  0.9108837811806514  0.12807812259633122  1.0000
  La  La2       1.0  0.4466495569705913  0.7814502423925003  0.5384923884522146  1.0000
  La  La3       1.0  0.28766513768486845  0.7227112027871918  0.28912496898786655  1.0000
  La  La4       1.0  0.9580458206901388  0.5849548505085984  0.5443045207590802  1.0000
