data_image0
_chemical_formula_structural       La4
_chemical_formula_sum              "La4"
_cell_length_a       3.79631058
_cell_length_b       3.7963124114957743
_cell_length_c       12.04125753
_cell_angle_alpha    90.0
_cell_angle_beta     90.0
_cell_angle_gamma    120.00000329189716

_space_group_name_H-M_alt    "P 1"
_space_group_IT_number       1

loop_
  _space_group_symop_operation_xyz
  'x, y, z'

loop_
  _atom_site_type_symbol
  _atom_site_label
  _atom_site_symmetry_multiplicity
  _atom_site_fract_x
  _atom_site_fract_y
  _atom_site_fract_z
  _atom_site_occupancy
  La  La1       1.0  0.11188317271314219  0.009962808422185887  0.5180598779530285  1.0000
  La  La2       1.0  0.7644949737963048  0.845581698231868  0.1623339511937847  1.0000
  La  La3       1.0  0.9599416887484757  0.39073517168660565  0.06766482694335815  1.0000
  La  La4       1.0  0.16368013068082377  0.7537204118435632  0.7519413889305526  1.0000
