data_image0
_chemical_formula_structural       La4
_chemical_formula_sum              "La4"
_cell_length_a       3.79631058
_cell_length_b       3.7963124114957743
_cell_length_c       12.04125753
_cell_angle_alpha    90.0
_cell_angle_beta     90.0
_cell_angle_gamma    120.00000329189716

_space_group_name_H-M_alt    "P 1"
_space_group_IT_number       1

loop_
  _space_group_symop_operation_xyz
  'x, y, z'

loop_
  _atom_site_type_symbol
  _atom_site_label
  _atom_site_symmetry_multiplicity
  _atom_site_fract_x
  _atom_site_fract_y
  _atom_site_fract_z
  _atom_site_occupancy
  La  La1       1.0  0.10844071031746072  0.9573801379046274  0.2766850413263686  1.0000
  La  La2       1.0  0.24260838133606555  0.6979713468114177  0.9681557743069309  1.0000
  La  La3       1.0  0.7829432864949002  0.43212876585027915  0.4480712133596807  1.0000
  La  La4       1.0  0.866007633098409  0.9125198689004388  0.8070880540947662  1.0000
