data_image0
_chemical_formula_structural       La4
_chemical_formula_sum              "La4"
_cell_length_a       3.79631058
_cell_length_b       3.7963124114957743
_cell_length_c       12.04125753
_cell_angle_alpha    90.0
_cell_angle_beta     90.0
_cell_angle_gamma    120.00000329189716

_space_group_name_H-M_alt    "P 1"
_space_group_IT_number       1

loop_
  _space_group_symop_operation_xyz
  'x, y, z'

loop_
  _atom_site_type_symbol
  _atom_site_label
  _atom_site_symmetry_multiplicity
  _atom_site_fract_x
  _atom_site_fract_y
  _atom_site_fract_z
  _atom_site_occupancy
  La  La1       1.0  0.6838192415944215  0.7242320070727573  0.11453302836357038  1.0000
  La  La2       1.0  0.7116527192193791  0.10083897429821942  0.9929739869716638  1.0000
  La  La3       1.0  0.27475737021878643  0.18895594245110026  0.9786686141333305  1.0000
  La  La4       1.0  0.32977058368501133  0.9859731245417933  0.41382441737155373  1.0000
