data_image0
_chemical_formula_structural       La4
_chemical_formula_sum              "La4"
_cell_length_a       3.79631058
_cell_length_b       3.7963124114957743
_cell_length_c       12.04125753
_cell_angle_alpha    90.0
_cell_angle_beta     90.0
_cell_angle_gamma    120.00000329189716

_space_group_name_H-M_alt    "P 1"
_space_group_IT_number       1

loop_
  _space_group_symop_operation_xyz
  'x, y, z'

loop_
  _atom_site_type_symbol
  _atom_site_label
  _atom_site_symmetry_multiplicity
  _atom_site_fract_x
  _atom_site_fract_y
  _atom_site_fract_z
  _atom_site_occupancy
  La  La1       1.0  0.066507912701951  0.3268170717086818  0.10380922781457258  1.0000
  La  La2       1.0  0.5570437983381717  0.26225690966346393  0.14236425147311482  1.0000
  La  La3       1.0  0.6631912293569795  0.003215073186976003  0.7232842244682978  1.0000
  La  La4       1.0  0.7132571237573053  0.4077111130576956  0.5305423574715409  1.0000
