data_image0
_chemical_formula_structural       La4
_chemical_formula_sum              "La4"
_cell_length_a       3.79631058
_cell_length_b       3.7963124114957743
_cell_length_c       12.04125753
_cell_angle_alpha    90.0
_cell_angle_beta     90.0
_cell_angle_gamma    120.00000329189716

_space_group_name_H-M_alt    "P 1"
_space_group_IT_number       1

loop_
  _space_group_symop_operation_xyz
  'x, y, z'

loop_
  _atom_site_type_symbol
  _atom_site_label
  _atom_site_symmetry_multiplicity
  _atom_site_fract_x
  _atom_site_fract_y
  _atom_site_fract_z
  _atom_site_occupancy
  La  La1       1.0  0.044981872902424946  0.4215823952151472  0.7082014050723586  1.0000
  La  La2       1.0  0.5932378667400133  0.6555881165086941  0.179328123265448  1.0000
  La  La3       1.0  0.4780025296142685  0.6637996178970944  0.9395557833507824  1.0000
  La  La4       1.0  0.8837777588436708  0.2590298571558165  0.6729146790820207  1.0000
