data_image0
_chemical_formula_structural       La4
_chemical_formula_sum              "La4"
_cell_length_a       3.79631058
_cell_length_b       3.7963124114957743
_cell_length_c       12.04125753
_cell_angle_alpha    90.0
_cell_angle_beta     90.0
_cell_angle_gamma    120.00000329189716

_space_group_name_H-M_alt    "P 1"
_space_group_IT_number       1

loop_
  _space_group_symop_operation_xyz
  'x, y, z'

loop_
  _atom_site_type_symbol
  _atom_site_label
  _atom_site_symmetry_multiplicity
  _atom_site_fract_x
  _atom_site_fract_y
  _atom_site_fract_z
  _atom_site_occupancy
  La  La1       1.0  0.10767529525333952  0.8821340175661607  0.4331227342815174  1.0000
  La  La2       1.0  0.14113879335978985  0.6691380492798631  0.9334650494027434  1.0000
  La  La3       1.0  0.5182618918695798  0.18750126964698466  0.8601123322833889  1.0000
  La  La4       1.0  0.23292396404074514  0.2612266838110955  0.27329991440431134  1.0000
