data_image0
_chemical_formula_structural       La4
_chemical_formula_sum              "La4"
_cell_length_a       3.79631058
_cell_length_b       3.7963124114957743
_cell_length_c       12.04125753
_cell_angle_alpha    90.0
_cell_angle_beta     90.0
_cell_angle_gamma    120.00000329189716

_space_group_name_H-M_alt    "P 1"
_space_group_IT_number       1

loop_
  _space_group_symop_operation_xyz
  'x, y, z'

loop_
  _atom_site_type_symbol
  _atom_site_label
  _atom_site_symmetry_multiplicity
  _atom_site_fract_x
  _atom_site_fract_y
  _atom_site_fract_z
  _atom_site_occupancy
  La  La1       1.0  0.23537489493050323  0.24065511728525513  0.6967657821882494  1.0000
  La  La2       1.0  0.7457843653395422  0.2561709948017459  0.5001396919737155  1.0000
  La  La3       1.0  0.2793268216679632  0.9672138025416288  0.7012849096411189  1.0000
  La  La4       1.0  0.7395139277643814  0.5359602389735083  0.6018096977272362  1.0000
