data_image0
_chemical_formula_structural       La4
_chemical_formula_sum              "La4"
_cell_length_a       3.79631058
_cell_length_b       3.7963124114957743
_cell_length_c       12.04125753
_cell_angle_alpha    90.0
_cell_angle_beta     90.0
_cell_angle_gamma    120.00000329189716

_space_group_name_H-M_alt    "P 1"
_space_group_IT_number       1

loop_
  _space_group_symop_operation_xyz
  'x, y, z'

loop_
  _atom_site_type_symbol
  _atom_site_label
  _atom_site_symmetry_multiplicity
  _atom_site_fract_x
  _atom_site_fract_y
  _atom_site_fract_z
  _atom_site_occupancy
  La  La1       1.0  0.4606148767091165  0.47352620551684677  0.1597437013000782  1.0000
  La  La2       1.0  0.9010389703966659  0.46754164858972835  0.2756348258377219  1.0000
  La  La3       1.0  0.6520908961555429  0.35312873525179267  0.12837786281736419  1.0000
  La  La4       1.0  0.9862553105656517  0.7058035882704932  0.9362436720748395  1.0000
