data_image0
_chemical_formula_structural       La4
_chemical_formula_sum              "La4"
_cell_length_a       3.79631058
_cell_length_b       3.7963124114957743
_cell_length_c       12.04125753
_cell_angle_alpha    90.0
_cell_angle_beta     90.0
_cell_angle_gamma    120.00000329189716

_space_group_name_H-M_alt    "P 1"
_space_group_IT_number       1

loop_
  _space_group_symop_operation_xyz
  'x, y, z'

loop_
  _atom_site_type_symbol
  _atom_site_label
  _atom_site_symmetry_multiplicity
  _atom_site_fract_x
  _atom_site_fract_y
  _atom_site_fract_z
  _atom_site_occupancy
  La  La1       1.0  0.08686752448880242  0.7305106580648761  0.9936208992646627  1.0000
  La  La2       1.0  0.38783065178728404  0.870457522708155  0.47403457242502056  1.0000
  La  La3       1.0  0.5148436219257364  0.9350901152000421  0.24798207249538962  1.0000
  La  La4       1.0  0.01045827477465  0.4639418751772393  0.7843625190858932  1.0000
