data_image0
_chemical_formula_structural       La4
_chemical_formula_sum              "La4"
_cell_length_a       3.79631058
_cell_length_b       3.7963124114957743
_cell_length_c       12.04125753
_cell_angle_alpha    90.0
_cell_angle_beta     90.0
_cell_angle_gamma    120.00000329189716

_space_group_name_H-M_alt    "P 1"
_space_group_IT_number       1

loop_
  _space_group_symop_operation_xyz
  'x, y, z'

loop_
  _atom_site_type_symbol
  _atom_site_label
  _atom_site_symmetry_multiplicity
  _atom_site_fract_x
  _atom_site_fract_y
  _atom_site_fract_z
  _atom_site_occupancy
  La  La1       1.0  0.7339013096736358  0.8702362988585541  0.24867780556000474  1.0000
  La  La2       1.0  0.3884352013195219  0.07812206373833952  0.42134072261315847  1.0000
  La  La3       1.0  0.7813678882186714  0.6932418208388569  0.6001619146980738  1.0000
  La  La4       1.0  0.096295579345135  0.35839991245785185  0.22981960378061483  1.0000
