data_image0
_chemical_formula_structural       La4
_chemical_formula_sum              "La4"
_cell_length_a       3.79631058
_cell_length_b       3.7963124114957743
_cell_length_c       12.04125753
_cell_angle_alpha    90.0
_cell_angle_beta     90.0
_cell_angle_gamma    120.00000329189716

_space_group_name_H-M_alt    "P 1"
_space_group_IT_number       1

loop_
  _space_group_symop_operation_xyz
  'x, y, z'

loop_
  _atom_site_type_symbol
  _atom_site_label
  _atom_site_symmetry_multiplicity
  _atom_site_fract_x
  _atom_site_fract_y
  _atom_site_fract_z
  _atom_site_occupancy
  La  La1       1.0  0.8161424725441693  0.6326800590489512  0.832302889935959  1.0000
  La  La2       1.0  0.7139896045054765  0.351085913753721  0.5385660197545434  1.0000
  La  La3       1.0  0.2360992187319999  0.7358714679158728  0.24356725074490448  1.0000
  La  La4       1.0  0.23376866061945578  0.28036257552384747  0.8855638665658047  1.0000
