data_image0
_chemical_formula_structural       La4
_chemical_formula_sum              "La4"
_cell_length_a       3.79631058
_cell_length_b       3.7963124114957743
_cell_length_c       12.04125753
_cell_angle_alpha    90.0
_cell_angle_beta     90.0
_cell_angle_gamma    120.00000329189716

_space_group_name_H-M_alt    "P 1"
_space_group_IT_number       1

loop_
  _space_group_symop_operation_xyz
  'x, y, z'

loop_
  _atom_site_type_symbol
  _atom_site_label
  _atom_site_symmetry_multiplicity
  _atom_site_fract_x
  _atom_site_fract_y
  _atom_site_fract_z
  _atom_site_occupancy
  La  La1       1.0  0.4079506372133288  0.8592499555885205  0.8238508725013292  1.0000
  La  La2       1.0  0.32151248903814  0.9429414565420275  0.9356968148616231  1.0000
  La  La3       1.0  0.3482732167972742  0.1359968534713989  0.9734560613630556  1.0000
  La  La4       1.0  0.9222635693942607  0.06181176398140664  0.7669962967482284  1.0000
