data_image0
_chemical_formula_structural       La4
_chemical_formula_sum              "La4"
_cell_length_a       3.79631058
_cell_length_b       3.7963124114957743
_cell_length_c       12.04125753
_cell_angle_alpha    90.0
_cell_angle_beta     90.0
_cell_angle_gamma    120.00000329189716

_space_group_name_H-M_alt    "P 1"
_space_group_IT_number       1

loop_
  _space_group_symop_operation_xyz
  'x, y, z'

loop_
  _atom_site_type_symbol
  _atom_site_label
  _atom_site_symmetry_multiplicity
  _atom_site_fract_x
  _atom_site_fract_y
  _atom_site_fract_z
  _atom_site_occupancy
  La  La1       1.0  0.193517302128571  0.4004381252695257  0.3771048627307705  1.0000
  La  La2       1.0  0.9120291523795734  0.554565999633466  0.08805730546088097  1.0000
  La  La3       1.0  0.8826231202974677  0.45271339717849557  0.07734741531999845  1.0000
  La  La4       1.0  0.011830483212116882  0.5922826595092268  0.9574904774306665  1.0000
