data_image0
_chemical_formula_structural       La4
_chemical_formula_sum              "La4"
_cell_length_a       3.79631058
_cell_length_b       3.7963124114957743
_cell_length_c       12.04125753
_cell_angle_alpha    90.0
_cell_angle_beta     90.0
_cell_angle_gamma    120.00000329189716

_space_group_name_H-M_alt    "P 1"
_space_group_IT_number       1

loop_
  _space_group_symop_operation_xyz
  'x, y, z'

loop_
  _atom_site_type_symbol
  _atom_site_label
  _atom_site_symmetry_multiplicity
  _atom_site_fract_x
  _atom_site_fract_y
  _atom_site_fract_z
  _atom_site_occupancy
  La  La1       1.0  0.0038815107367931034  0.6680836816973876  0.9511054529878336  1.0000
  La  La2       1.0  0.5092738057241215  0.7993855165547648  0.8099582361527391  1.0000
  La  La3       1.0  0.7256273789586594  0.04698431721004903  0.7772446010669865  1.0000
  La  La4       1.0  0.7612173121045078  0.4855464859859513  0.9616917087649888  1.0000
