data_image0
_chemical_formula_structural       La4
_chemical_formula_sum              "La4"
_cell_length_a       3.79631058
_cell_length_b       3.7963124114957743
_cell_length_c       12.04125753
_cell_angle_alpha    90.0
_cell_angle_beta     90.0
_cell_angle_gamma    120.00000329189716

_space_group_name_H-M_alt    "P 1"
_space_group_IT_number       1

loop_
  _space_group_symop_operation_xyz
  'x, y, z'

loop_
  _atom_site_type_symbol
  _atom_site_label
  _atom_site_symmetry_multiplicity
  _atom_site_fract_x
  _atom_site_fract_y
  _atom_site_fract_z
  _atom_site_occupancy
  La  La1       1.0  0.4742006054560157  0.07230155834378138  0.2039613088562997  1.0000
  La  La2       1.0  0.34150801241548967  0.3427474515320872  0.7485640900453202  1.0000
  La  La3       1.0  0.06678264750071783  0.6178428077895863  0.9779175249901013  1.0000
  La  La4       1.0  0.11750873882228063  0.9671081858953823  0.5695570746494748  1.0000
