data_image0
_chemical_formula_structural       La4
_chemical_formula_sum              "La4"
_cell_length_a       3.79631058
_cell_length_b       3.7963124114957743
_cell_length_c       12.04125753
_cell_angle_alpha    90.0
_cell_angle_beta     90.0
_cell_angle_gamma    120.00000329189716

_space_group_name_H-M_alt    "P 1"
_space_group_IT_number       1

loop_
  _space_group_symop_operation_xyz
  'x, y, z'

loop_
  _atom_site_type_symbol
  _atom_site_label
  _atom_site_symmetry_multiplicity
  _atom_site_fract_x
  _atom_site_fract_y
  _atom_site_fract_z
  _atom_site_occupancy
  La  La1       1.0  0.16924647384104574  0.22538846722340633  0.11391355261562452  1.0000
  La  La2       1.0  0.6726973855617215  0.45154805796188136  0.8133760803370038  1.0000
  La  La3       1.0  0.15483178902482897  0.6973326005159617  0.5658957843600549  1.0000
  La  La4       1.0  0.0032244610777141247  0.6257308981316569  0.006814579060433701  1.0000
