data_image0
_chemical_formula_structural       La4
_chemical_formula_sum              "La4"
_cell_length_a       3.79631058
_cell_length_b       3.7963124114957743
_cell_length_c       12.04125753
_cell_angle_alpha    90.0
_cell_angle_beta     90.0
_cell_angle_gamma    120.00000329189716

_space_group_name_H-M_alt    "P 1"
_space_group_IT_number       1

loop_
  _space_group_symop_operation_xyz
  'x, y, z'

loop_
  _atom_site_type_symbol
  _atom_site_label
  _atom_site_symmetry_multiplicity
  _atom_site_fract_x
  _atom_site_fract_y
  _atom_site_fract_z
  _atom_site_occupancy
  La  La1       1.0  0.615100208930901  0.28864156879341607  0.9337656494769044  1.0000
  La  La2       1.0  0.16516382859429024  0.3564110482609619  0.13625687727421876  1.0000
  La  La3       1.0  0.5800369958356164  0.165937894090181  0.21788935185885838  1.0000
  La  La4       1.0  0.639698884818003  0.18900954426205985  0.21208817025835547  1.0000
