data_image0
_chemical_formula_structural       La4
_chemical_formula_sum              "La4"
_cell_length_a       3.79631058
_cell_length_b       3.7963124114957743
_cell_length_c       12.04125753
_cell_angle_alpha    90.0
_cell_angle_beta     90.0
_cell_angle_gamma    120.00000329189716

_space_group_name_H-M_alt    "P 1"
_space_group_IT_number       1

loop_
  _space_group_symop_operation_xyz
  'x, y, z'

loop_
  _atom_site_type_symbol
  _atom_site_label
  _atom_site_symmetry_multiplicity
  _atom_site_fract_x
  _atom_site_fract_y
  _atom_site_fract_z
  _atom_site_occupancy
  La  La1       1.0  0.2232120092194556  0.610365077446283  0.2828291798643723  1.0000
  La  La2       1.0  0.00923765462878201  0.14678209876665527  0.7941563734883472  1.0000
  La  La3       1.0  0.022667214748373965  0.05009348448273876  0.053132841535414865  1.0000
  La  La4       1.0  0.7448832188757857  0.19275943670080764  0.36988160752124255  1.0000
