data_image0
_chemical_formula_structural       La4
_chemical_formula_sum              "La4"
_cell_length_a       3.79631058
_cell_length_b       3.7963124114957743
_cell_length_c       12.04125753
_cell_angle_alpha    90.0
_cell_angle_beta     90.0
_cell_angle_gamma    120.00000329189716

_space_group_name_H-M_alt    "P 1"
_space_group_IT_number       1

loop_
  _space_group_symop_operation_xyz
  'x, y, z'

loop_
  _atom_site_type_symbol
  _atom_site_label
  _atom_site_symmetry_multiplicity
  _atom_site_fract_x
  _atom_site_fract_y
  _atom_site_fract_z
  _atom_site_occupancy
  La  La1       1.0  0.7438164610088682  0.28077690487389617  0.3066624809591252  1.0000
  La  La2       1.0  0.44375991052394514  0.05355430170746023  0.8611898674224391  1.0000
  La  La3       1.0  0.3502793676054239  0.6048242195879729  0.31209440974033287  1.0000
  La  La4       1.0  0.46214430021168873  0.06084469150681571  0.020053291012148478  1.0000
