data_image0
_chemical_formula_structural       La4
_chemical_formula_sum              "La4"
_cell_length_a       3.79631058
_cell_length_b       3.7963124114957743
_cell_length_c       12.04125753
_cell_angle_alpha    90.0
_cell_angle_beta     90.0
_cell_angle_gamma    120.00000329189716

_space_group_name_H-M_alt    "P 1"
_space_group_IT_number       1

loop_
  _space_group_symop_operation_xyz
  'x, y, z'

loop_
  _atom_site_type_symbol
  _atom_site_label
  _atom_site_symmetry_multiplicity
  _atom_site_fract_x
  _atom_site_fract_y
  _atom_site_fract_z
  _atom_site_occupancy
  La  La1       1.0  0.1838474170905755  0.23900700639208527  0.5400531757437985  1.0000
  La  La2       1.0  0.431567950520809  0.5986843150428696  0.3021036951168844  1.0000
  La  La3       1.0  0.7401206120262316  0.6934631320157756  0.11266697686699745  1.0000
  La  La4       1.0  0.6444641320344489  0.46884564997477085  0.5451761542216955  1.0000
