data_image0
_chemical_formula_structural       La4
_chemical_formula_sum              "La4"
_cell_length_a       3.79631058
_cell_length_b       3.7963124114957743
_cell_length_c       12.04125753
_cell_angle_alpha    90.0
_cell_angle_beta     90.0
_cell_angle_gamma    120.00000329189716

_space_group_name_H-M_alt    "P 1"
_space_group_IT_number       1

loop_
  _space_group_symop_operation_xyz
  'x, y, z'

loop_
  _atom_site_type_symbol
  _atom_site_label
  _atom_site_symmetry_multiplicity
  _atom_site_fract_x
  _atom_site_fract_y
  _atom_site_fract_z
  _atom_site_occupancy
  La  La1       1.0  0.5455750282643734  0.2433663975770557  0.5012671927485082  1.0000
  La  La2       1.0  0.2131552647705961  0.5875836567652479  0.4914494680852003  1.0000
  La  La3       1.0  0.8458865815000367  0.10685351188144487  0.20656016125316157  1.0000
  La  La4       1.0  0.3953831768562317  0.06219657274234436  0.30072322719571165  1.0000
