data_image0
_chemical_formula_structural       La4
_chemical_formula_sum              "La4"
_cell_length_a       3.79631058
_cell_length_b       3.7963124114957743
_cell_length_c       12.04125753
_cell_angle_alpha    90.0
_cell_angle_beta     90.0
_cell_angle_gamma    120.00000329189716

_space_group_name_H-M_alt    "P 1"
_space_group_IT_number       1

loop_
  _space_group_symop_operation_xyz
  'x, y, z'

loop_
  _atom_site_type_symbol
  _atom_site_label
  _atom_site_symmetry_multiplicity
  _atom_site_fract_x
  _atom_site_fract_y
  _atom_site_fract_z
  _atom_site_occupancy
  La  La1       1.0  0.7164682655925141  0.33602378294423696  0.947208843433347  1.0000
  La  La2       1.0  0.623471635355072  0.9049288808304876  0.36964345808262755  1.0000
  La  La3       1.0  0.24224744131130196  0.2696323603609265  0.11761204395987335  1.0000
  La  La4       1.0  0.41781268917020853  0.48941495496239185  0.06553564437316384  1.0000
