data_image0
_chemical_formula_structural       La4
_chemical_formula_sum              "La4"
_cell_length_a       3.79631058
_cell_length_b       3.7963124114957743
_cell_length_c       12.04125753
_cell_angle_alpha    90.0
_cell_angle_beta     90.0
_cell_angle_gamma    120.00000329189716

_space_group_name_H-M_alt    "P 1"
_space_group_IT_number       1

loop_
  _space_group_symop_operation_xyz
  'x, y, z'

loop_
  _atom_site_type_symbol
  _atom_site_label
  _atom_site_symmetry_multiplicity
  _atom_site_fract_x
  _atom_site_fract_y
  _atom_site_fract_z
  _atom_site_occupancy
  La  La1       1.0  0.20140589353553118  0.3701671694957116  0.19603432664278486  1.0000
  La  La2       1.0  0.3291727082267961  0.653897106357026  0.7588092271340949  1.0000
  La  La3       1.0  0.8007371181696659  0.9473967170940911  0.040903430066421054  1.0000
  La  La4       1.0  0.6686842902201384  0.028539150267408386  0.5042530982721196  1.0000
