data_image0
_chemical_formula_structural       La4
_chemical_formula_sum              "La4"
_cell_length_a       3.79631058
_cell_length_b       3.7963124114957743
_cell_length_c       12.04125753
_cell_angle_alpha    90.0
_cell_angle_beta     90.0
_cell_angle_gamma    120.00000329189716

_space_group_name_H-M_alt    "P 1"
_space_group_IT_number       1

loop_
  _space_group_symop_operation_xyz
  'x, y, z'

loop_
  _atom_site_type_symbol
  _atom_site_label
  _atom_site_symmetry_multiplicity
  _atom_site_fract_x
  _atom_site_fract_y
  _atom_site_fract_z
  _atom_site_occupancy
  La  La1       1.0  0.48818242203931916  0.7605148728270903  0.472817762834727  1.0000
  La  La2       1.0  0.5885544380792478  0.13290879744926087  0.7941795725494281  1.0000
  La  La3       1.0  0.6297834116648611  0.5739621940145803  0.0054901661835873306  1.0000
  La  La4       1.0  0.2934797580496422  0.532614125315547  0.22751249376283025  1.0000
