data_image0
_chemical_formula_structural       La4
_chemical_formula_sum              "La4"
_cell_length_a       3.79631058
_cell_length_b       3.7963124114957743
_cell_length_c       12.04125753
_cell_angle_alpha    90.0
_cell_angle_beta     90.0
_cell_angle_gamma    120.00000329189716

_space_group_name_H-M_alt    "P 1"
_space_group_IT_number       1

loop_
  _space_group_symop_operation_xyz
  'x, y, z'

loop_
  _atom_site_type_symbol
  _atom_site_label
  _atom_site_symmetry_multiplicity
  _atom_site_fract_x
  _atom_site_fract_y
  _atom_site_fract_z
  _atom_site_occupancy
  La  La1       1.0  0.468346181093362  0.8822243934874496  0.4958248818629354  1.0000
  La  La2       1.0  0.05910600891835349  0.535993710561903  0.0484946103997006  1.0000
  La  La3       1.0  0.04540009693119984  0.9044329816244332  0.12283511351832474  1.0000
  La  La4       1.0  0.4271476606758071  0.677348995557427  0.8328454381247821  1.0000
