data_image0
_chemical_formula_structural       La4
_chemical_formula_sum              "La4"
_cell_length_a       3.79631058
_cell_length_b       3.7963124114957743
_cell_length_c       12.04125753
_cell_angle_alpha    90.0
_cell_angle_beta     90.0
_cell_angle_gamma    120.00000329189716

_space_group_name_H-M_alt    "P 1"
_space_group_IT_number       1

loop_
  _space_group_symop_operation_xyz
  'x, y, z'

loop_
  _atom_site_type_symbol
  _atom_site_label
  _atom_site_symmetry_multiplicity
  _atom_site_fract_x
  _atom_site_fract_y
  _atom_site_fract_z
  _atom_site_occupancy
  La  La1       1.0  0.21389550358662746  0.8907945684740959  0.9233709614611696  1.0000
  La  La2       1.0  0.6640938863045065  0.9047700430001999  0.04166757603158522  1.0000
  La  La3       1.0  0.026075454820691846  0.9489358435485595  0.05145376173890792  1.0000
  La  La4       1.0  0.09593526034648336  0.25549964755056465  0.48350770289332967  1.0000
