data_image0
_chemical_formula_structural       La4
_chemical_formula_sum              "La4"
_cell_length_a       3.79631058
_cell_length_b       3.7963124114957743
_cell_length_c       12.04125753
_cell_angle_alpha    90.0
_cell_angle_beta     90.0
_cell_angle_gamma    120.00000329189716

_space_group_name_H-M_alt    "P 1"
_space_group_IT_number       1

loop_
  _space_group_symop_operation_xyz
  'x, y, z'

loop_
  _atom_site_type_symbol
  _atom_site_label
  _atom_site_symmetry_multiplicity
  _atom_site_fract_x
  _atom_site_fract_y
  _atom_site_fract_z
  _atom_site_occupancy
  La  La1       1.0  0.9891891808593911  0.6279374330928063  0.05775906011515097  1.0000
  La  La2       1.0  0.36534080676872405  0.23943106443765716  0.7864980526144493  1.0000
  La  La3       1.0  0.521681222426488  0.900424644615625  0.659946474756139  1.0000
  La  La4       1.0  0.1237888180104374  0.23220686415442593  0.995796413293362  1.0000
