data_image0
_chemical_formula_structural       La4
_chemical_formula_sum              "La4"
_cell_length_a       3.79631058
_cell_length_b       3.7963124114957743
_cell_length_c       12.04125753
_cell_angle_alpha    90.0
_cell_angle_beta     90.0
_cell_angle_gamma    120.00000329189716

_space_group_name_H-M_alt    "P 1"
_space_group_IT_number       1

loop_
  _space_group_symop_operation_xyz
  'x, y, z'

loop_
  _atom_site_type_symbol
  _atom_site_label
  _atom_site_symmetry_multiplicity
  _atom_site_fract_x
  _atom_site_fract_y
  _atom_site_fract_z
  _atom_site_occupancy
  La  La1       1.0  0.9999326314583441  0.015711351740699264  0.43755464628965335  1.0000
  La  La2       1.0  0.06532710582443535  0.08912307626392568  0.9447580741237376  1.0000
  La  La3       1.0  0.4444723706311464  0.7254978411846409  0.019455258696658095  1.0000
  La  La4       1.0  0.49026792049962964  0.1696677189061866  0.09823201776973606  1.0000
