data_image0
_chemical_formula_structural       La4
_chemical_formula_sum              "La4"
_cell_length_a       3.79631058
_cell_length_b       3.7963124114957743
_cell_length_c       12.04125753
_cell_angle_alpha    90.0
_cell_angle_beta     90.0
_cell_angle_gamma    120.00000329189716

_space_group_name_H-M_alt    "P 1"
_space_group_IT_number       1

loop_
  _space_group_symop_operation_xyz
  'x, y, z'

loop_
  _atom_site_type_symbol
  _atom_site_label
  _atom_site_symmetry_multiplicity
  _atom_site_fract_x
  _atom_site_fract_y
  _atom_site_fract_z
  _atom_site_occupancy
  La  La1       1.0  0.9365316782497874  0.09760383794361793  0.8062350094432045  1.0000
  La  La2       1.0  0.4771334798545901  0.599253388089501  0.9652482336741237  1.0000
  La  La3       1.0  0.4740221475815014  0.6122690515376075  0.08919235742365261  1.0000
  La  La4       1.0  0.11231273248684515  0.6908739087030646  0.6393244849769308  1.0000
