data_image0
_chemical_formula_structural       La4
_chemical_formula_sum              "La4"
_cell_length_a       3.79631058
_cell_length_b       3.7963124114957743
_cell_length_c       12.04125753
_cell_angle_alpha    90.0
_cell_angle_beta     90.0
_cell_angle_gamma    120.00000329189716

_space_group_name_H-M_alt    "P 1"
_space_group_IT_number       1

loop_
  _space_group_symop_operation_xyz
  'x, y, z'

loop_
  _atom_site_type_symbol
  _atom_site_label
  _atom_site_symmetry_multiplicity
  _atom_site_fract_x
  _atom_site_fract_y
  _atom_site_fract_z
  _atom_site_occupancy
  La  La1       1.0  0.645326530989295  0.5953067089468869  0.6468487342190219  1.0000
  La  La2       1.0  0.40099759368660415  0.8859740188553276  0.23787094123117836  1.0000
  La  La3       1.0  0.9383982192770688  0.6669995346177049  0.42756077661732217  1.0000
  La  La4       1.0  0.015277663091380234  0.8517198672792239  0.18771963127659408  1.0000
