data_image0
_chemical_formula_structural       La4
_chemical_formula_sum              "La4"
_cell_length_a       3.79631058
_cell_length_b       3.7963124114957743
_cell_length_c       12.04125753
_cell_angle_alpha    90.0
_cell_angle_beta     90.0
_cell_angle_gamma    120.00000329189716

_space_group_name_H-M_alt    "P 1"
_space_group_IT_number       1

loop_
  _space_group_symop_operation_xyz
  'x, y, z'

loop_
  _atom_site_type_symbol
  _atom_site_label
  _atom_site_symmetry_multiplicity
  _atom_site_fract_x
  _atom_site_fract_y
  _atom_site_fract_z
  _atom_site_occupancy
  La  La1       1.0  0.050792106859541164  0.3707122169268171  0.6772396458560159  1.0000
  La  La2       1.0  0.7374543438510095  0.4447709836861158  0.915903005562078  1.0000
  La  La3       1.0  0.0912338052953281  0.5664880203929088  0.09981501214284094  1.0000
  La  La4       1.0  0.1205197825533193  0.6180289660436564  0.8070424223087542  1.0000
