data_image0
_chemical_formula_structural       La4
_chemical_formula_sum              "La4"
_cell_length_a       3.79631058
_cell_length_b       3.7963124114957743
_cell_length_c       12.04125753
_cell_angle_alpha    90.0
_cell_angle_beta     90.0
_cell_angle_gamma    120.00000329189716

_space_group_name_H-M_alt    "P 1"
_space_group_IT_number       1

loop_
  _space_group_symop_operation_xyz
  'x, y, z'

loop_
  _atom_site_type_symbol
  _atom_site_label
  _atom_site_symmetry_multiplicity
  _atom_site_fract_x
  _atom_site_fract_y
  _atom_site_fract_z
  _atom_site_occupancy
  La  La1       1.0  0.08139009867018032  0.573561933402825  0.6057382960812863  1.0000
  La  La2       1.0  0.564561744846154  0.4368974806628536  0.8840215506645339  1.0000
  La  La3       1.0  0.2811551200090441  0.31133962518145  0.2824428960019991  1.0000
  La  La4       1.0  0.07289308070966527  0.6782011340016005  0.7277973392009098  1.0000
