data_image0
_chemical_formula_structural       La4
_chemical_formula_sum              "La4"
_cell_length_a       3.79631058
_cell_length_b       3.7963124114957743
_cell_length_c       12.04125753
_cell_angle_alpha    90.0
_cell_angle_beta     90.0
_cell_angle_gamma    120.00000329189716

_space_group_name_H-M_alt    "P 1"
_space_group_IT_number       1

loop_
  _space_group_symop_operation_xyz
  'x, y, z'

loop_
  _atom_site_type_symbol
  _atom_site_label
  _atom_site_symmetry_multiplicity
  _atom_site_fract_x
  _atom_site_fract_y
  _atom_site_fract_z
  _atom_site_occupancy
  La  La1       1.0  0.7868492983981774  0.7216512619939364  0.39596014021975545  1.0000
  La  La2       1.0  0.5783688953411106  0.5149195588395274  0.44283915585523514  1.0000
  La  La3       1.0  0.011199442874053389  0.9858838360641831  0.013529246673391615  1.0000
  La  La4       1.0  0.6235823765019184  0.7775453389923688  0.647671460382544  1.0000
