data_image0
_chemical_formula_structural       La4
_chemical_formula_sum              "La4"
_cell_length_a       3.79631058
_cell_length_b       3.7963124114957743
_cell_length_c       12.04125753
_cell_angle_alpha    90.0
_cell_angle_beta     90.0
_cell_angle_gamma    120.00000329189716

_space_group_name_H-M_alt    "P 1"
_space_group_IT_number       1

loop_
  _space_group_symop_operation_xyz
  'x, y, z'

loop_
  _atom_site_type_symbol
  _atom_site_label
  _atom_site_symmetry_multiplicity
  _atom_site_fract_x
  _atom_site_fract_y
  _atom_site_fract_z
  _atom_site_occupancy
  La  La1       1.0  0.49140139122470305  0.6301133835386612  0.6948945015333905  1.0000
  La  La2       1.0  0.49695835804911326  0.08355501086724804  0.37965242350139317  1.0000
  La  La3       1.0  0.21662971322982294  0.942510248461366  0.2603108214502403  1.0000
  La  La4       1.0  0.7950105495306712  0.34382147330934587  0.16514233590330152  1.0000
