data_image0
_chemical_formula_structural       La4
_chemical_formula_sum              "La4"
_cell_length_a       3.79631058
_cell_length_b       3.7963124114957743
_cell_length_c       12.04125753
_cell_angle_alpha    90.0
_cell_angle_beta     90.0
_cell_angle_gamma    120.00000329189716

_space_group_name_H-M_alt    "P 1"
_space_group_IT_number       1

loop_
  _space_group_symop_operation_xyz
  'x, y, z'

loop_
  _atom_site_type_symbol
  _atom_site_label
  _atom_site_symmetry_multiplicity
  _atom_site_fract_x
  _atom_site_fract_y
  _atom_site_fract_z
  _atom_site_occupancy
  La  La1       1.0  0.5436026767051632  0.5265327037408376  0.39368977004210626  1.0000
  La  La2       1.0  0.9352220728256039  0.4098200104596774  0.014219478464696511  1.0000
  La  La3       1.0  0.11812693722532686  0.49343898600836233  0.23734339488826725  1.0000
  La  La4       1.0  0.40304828588730146  0.5702083942689633  0.8547474018300454  1.0000
