data_image0
_chemical_formula_structural       La4
_chemical_formula_sum              "La4"
_cell_length_a       3.79631058
_cell_length_b       3.7963124114957743
_cell_length_c       12.04125753
_cell_angle_alpha    90.0
_cell_angle_beta     90.0
_cell_angle_gamma    120.00000329189716

_space_group_name_H-M_alt    "P 1"
_space_group_IT_number       1

loop_
  _space_group_symop_operation_xyz
  'x, y, z'

loop_
  _atom_site_type_symbol
  _atom_site_label
  _atom_site_symmetry_multiplicity
  _atom_site_fract_x
  _atom_site_fract_y
  _atom_site_fract_z
  _atom_site_occupancy
  La  La1       1.0  0.489729804872443  0.31333702350393366  0.9439370211163052  1.0000
  La  La2       1.0  0.310641960654237  0.5594954136683215  0.8449508392832746  1.0000
  La  La3       1.0  0.646532598170861  0.057553408389081184  0.7841219052633739  1.0000
  La  La4       1.0  0.553095648314823  0.06961415622085987  0.9269902338291519  1.0000
