data_image0
_chemical_formula_structural       La4
_chemical_formula_sum              "La4"
_cell_length_a       3.79631058
_cell_length_b       3.7963124114957743
_cell_length_c       12.04125753
_cell_angle_alpha    90.0
_cell_angle_beta     90.0
_cell_angle_gamma    120.00000329189716

_space_group_name_H-M_alt    "P 1"
_space_group_IT_number       1

loop_
  _space_group_symop_operation_xyz
  'x, y, z'

loop_
  _atom_site_type_symbol
  _atom_site_label
  _atom_site_symmetry_multiplicity
  _atom_site_fract_x
  _atom_site_fract_y
  _atom_site_fract_z
  _atom_site_occupancy
  La  La1       1.0  0.43997313034215146  0.6178049531663923  0.55941806620047  1.0000
  La  La2       1.0  0.9163890579878604  0.3974302947851296  0.1959906257582409  1.0000
  La  La3       1.0  0.8583215420533321  0.8414200342523747  0.4606990594512572  1.0000
  La  La4       1.0  0.7853162816472938  0.1433448368980672  0.2838923319174267  1.0000
