data_image0
_chemical_formula_structural       La4
_chemical_formula_sum              "La4"
_cell_length_a       3.79631058
_cell_length_b       3.7963124114957743
_cell_length_c       12.04125753
_cell_angle_alpha    90.0
_cell_angle_beta     90.0
_cell_angle_gamma    120.00000329189716

_space_group_name_H-M_alt    "P 1"
_space_group_IT_number       1

loop_
  _space_group_symop_operation_xyz
  'x, y, z'

loop_
  _atom_site_type_symbol
  _atom_site_label
  _atom_site_symmetry_multiplicity
  _atom_site_fract_x
  _atom_site_fract_y
  _atom_site_fract_z
  _atom_site_occupancy
  La  La1       1.0  0.5823474056951845  0.4612313885987058  0.36687766928927656  1.0000
  La  La2       1.0  0.12989372803751742  0.11029325126333323  0.03941543454859331  1.0000
  La  La3       1.0  0.19917373730562815  0.32908943206621544  0.2450393696396702  1.0000
  La  La4       1.0  0.08858521343797587  0.09938601253629997  0.8486675287558105  1.0000
