data_image0
_chemical_formula_structural       La4
_chemical_formula_sum              "La4"
_cell_length_a       3.79631058
_cell_length_b       3.7963124114957743
_cell_length_c       12.04125753
_cell_angle_alpha    90.0
_cell_angle_beta     90.0
_cell_angle_gamma    120.00000329189716

_space_group_name_H-M_alt    "P 1"
_space_group_IT_number       1

loop_
  _space_group_symop_operation_xyz
  'x, y, z'

loop_
  _atom_site_type_symbol
  _atom_site_label
  _atom_site_symmetry_multiplicity
  _atom_site_fract_x
  _atom_site_fract_y
  _atom_site_fract_z
  _atom_site_occupancy
  La  La1       1.0  0.7021876163182057  0.2146737372911438  0.7494921863730957  1.0000
  La  La2       1.0  0.8003555677274168  0.5594270483462243  0.6647091819483926  1.0000
  La  La3       1.0  0.8316985753536171  0.4140989348332731  0.6139799587129704  1.0000
  La  La4       1.0  0.6657582692338373  0.8118002614696564  0.47181866370558145  1.0000
