data_image0
_chemical_formula_structural       La4
_chemical_formula_sum              "La4"
_cell_length_a       3.79631058
_cell_length_b       3.7963124114957743
_cell_length_c       12.04125753
_cell_angle_alpha    90.0
_cell_angle_beta     90.0
_cell_angle_gamma    120.00000329189716

_space_group_name_H-M_alt    "P 1"
_space_group_IT_number       1

loop_
  _space_group_symop_operation_xyz
  'x, y, z'

loop_
  _atom_site_type_symbol
  _atom_site_label
  _atom_site_symmetry_multiplicity
  _atom_site_fract_x
  _atom_site_fract_y
  _atom_site_fract_z
  _atom_site_occupancy
  La  La1       1.0  0.2657230564245143  0.6321043879688872  0.31362337921435834  1.0000
  La  La2       1.0  0.012312715125803564  0.5592248198022665  0.09948801486933023  1.0000
  La  La3       1.0  0.5014168530394976  0.6876591161289873  0.9918995020708019  1.0000
  La  La4       1.0  0.22054753464516352  0.1210117836180089  0.09498910341417766  1.0000
