data_image0
_chemical_formula_structural       La4
_chemical_formula_sum              "La4"
_cell_length_a       3.79631058
_cell_length_b       3.7963124114957743
_cell_length_c       12.04125753
_cell_angle_alpha    90.0
_cell_angle_beta     90.0
_cell_angle_gamma    120.00000329189716

_space_group_name_H-M_alt    "P 1"
_space_group_IT_number       1

loop_
  _space_group_symop_operation_xyz
  'x, y, z'

loop_
  _atom_site_type_symbol
  _atom_site_label
  _atom_site_symmetry_multiplicity
  _atom_site_fract_x
  _atom_site_fract_y
  _atom_site_fract_z
  _atom_site_occupancy
  La  La1       1.0  0.1908411906954064  0.584328593016616  0.8913491576832886  1.0000
  La  La2       1.0  0.08586747960676089  0.20394493155331261  0.5957262699668102  1.0000
  La  La3       1.0  0.8225192559003784  0.8189736554328011  0.16785329321957887  1.0000
  La  La4       1.0  0.9007721004894833  0.39275280410170055  0.845071282286215  1.0000
