data_image0
_chemical_formula_structural       La4
_chemical_formula_sum              "La4"
_cell_length_a       3.79631058
_cell_length_b       3.7963124114957743
_cell_length_c       12.04125753
_cell_angle_alpha    90.0
_cell_angle_beta     90.0
_cell_angle_gamma    120.00000329189716

_space_group_name_H-M_alt    "P 1"
_space_group_IT_number       1

loop_
  _space_group_symop_operation_xyz
  'x, y, z'

loop_
  _atom_site_type_symbol
  _atom_site_label
  _atom_site_symmetry_multiplicity
  _atom_site_fract_x
  _atom_site_fract_y
  _atom_site_fract_z
  _atom_site_occupancy
  La  La1       1.0  0.3286287927183196  0.055184677295629925  0.9288464056242693  1.0000
  La  La2       1.0  0.3723212453220599  0.011204712777028725  0.0828180165227666  1.0000
  La  La3       1.0  0.36717466287412037  0.7214270171193977  0.641494407345808  1.0000
  La  La4       1.0  0.9318753080238569  0.21218369212096988  0.8468412207057634  1.0000
