data_image0
_chemical_formula_structural       La4
_chemical_formula_sum              "La4"
_cell_length_a       3.79631058
_cell_length_b       3.7963124114957743
_cell_length_c       12.04125753
_cell_angle_alpha    90.0
_cell_angle_beta     90.0
_cell_angle_gamma    120.00000329189716

_space_group_name_H-M_alt    "P 1"
_space_group_IT_number       1

loop_
  _space_group_symop_operation_xyz
  'x, y, z'

loop_
  _atom_site_type_symbol
  _atom_site_label
  _atom_site_symmetry_multiplicity
  _atom_site_fract_x
  _atom_site_fract_y
  _atom_site_fract_z
  _atom_site_occupancy
  La  La1       1.0  0.7370057833841948  0.7023252903869821  0.7962648566351014  1.0000
  La  La2       1.0  0.8553705937828493  0.767957538404314  0.25515377352949664  1.0000
  La  La3       1.0  0.9269590511862071  0.9084343103059123  0.9472255468584221  1.0000
  La  La4       1.0  0.48066461406139416  0.6212830289911597  0.5013559010543496  1.0000
