data_image0
_chemical_formula_structural       La4
_chemical_formula_sum              "La4"
_cell_length_a       3.79631058
_cell_length_b       3.7963124114957743
_cell_length_c       12.04125753
_cell_angle_alpha    90.0
_cell_angle_beta     90.0
_cell_angle_gamma    120.00000329189716

_space_group_name_H-M_alt    "P 1"
_space_group_IT_number       1

loop_
  _space_group_symop_operation_xyz
  'x, y, z'

loop_
  _atom_site_type_symbol
  _atom_site_label
  _atom_site_symmetry_multiplicity
  _atom_site_fract_x
  _atom_site_fract_y
  _atom_site_fract_z
  _atom_site_occupancy
  La  La1       1.0  0.9518826148654576  0.9048212680652687  0.622472365298544  1.0000
  La  La2       1.0  0.962417134244788  0.3203570942424525  0.9121833399132491  1.0000
  La  La3       1.0  0.0707442791024846  0.35677879527708  0.9513294414328235  1.0000
  La  La4       1.0  0.014956089529336136  0.4180429426851404  0.014014842618807144  1.0000
