data_image0
_chemical_formula_structural       La4
_chemical_formula_sum              "La4"
_cell_length_a       3.79631058
_cell_length_b       3.7963124114957743
_cell_length_c       12.04125753
_cell_angle_alpha    90.0
_cell_angle_beta     90.0
_cell_angle_gamma    120.00000329189716

_space_group_name_H-M_alt    "P 1"
_space_group_IT_number       1

loop_
  _space_group_symop_operation_xyz
  'x, y, z'

loop_
  _atom_site_type_symbol
  _atom_site_label
  _atom_site_symmetry_multiplicity
  _atom_site_fract_x
  _atom_site_fract_y
  _atom_site_fract_z
  _atom_site_occupancy
  La  La1       1.0  0.23907385904924006  0.6872725072686485  0.82823828054992  1.0000
  La  La2       1.0  0.12774730000655676  0.3727064357650378  0.00518770072924165  1.0000
  La  La3       1.0  0.6829785771364669  0.4894796265746644  0.9388473174010366  1.0000
  La  La4       1.0  0.9502002837023067  0.4505415323999564  0.7277267510649335  1.0000
