data_image0
_chemical_formula_structural       La4
_chemical_formula_sum              "La4"
_cell_length_a       3.79631058
_cell_length_b       3.7963124114957743
_cell_length_c       12.04125753
_cell_angle_alpha    90.0
_cell_angle_beta     90.0
_cell_angle_gamma    120.00000329189716

_space_group_name_H-M_alt    "P 1"
_space_group_IT_number       1

loop_
  _space_group_symop_operation_xyz
  'x, y, z'

loop_
  _atom_site_type_symbol
  _atom_site_label
  _atom_site_symmetry_multiplicity
  _atom_site_fract_x
  _atom_site_fract_y
  _atom_site_fract_z
  _atom_site_occupancy
  La  La1       1.0  0.6034778808271088  0.1252021952333049  0.8303451043973773  1.0000
  La  La2       1.0  0.19344433134891048  0.21611415517966215  0.5605708278296448  1.0000
  La  La3       1.0  0.4306525819936087  0.779417941759343  0.16529469451611956  1.0000
  La  La4       1.0  0.7724252516351411  0.879265883770568  0.9437894394260402  1.0000
