data_image0
_chemical_formula_structural       La4
_chemical_formula_sum              "La4"
_cell_length_a       3.79631058
_cell_length_b       3.7963124114957743
_cell_length_c       12.04125753
_cell_angle_alpha    90.0
_cell_angle_beta     90.0
_cell_angle_gamma    120.00000329189716

_space_group_name_H-M_alt    "P 1"
_space_group_IT_number       1

loop_
  _space_group_symop_operation_xyz
  'x, y, z'

loop_
  _atom_site_type_symbol
  _atom_site_label
  _atom_site_symmetry_multiplicity
  _atom_site_fract_x
  _atom_site_fract_y
  _atom_site_fract_z
  _atom_site_occupancy
  La  La1       1.0  0.9045116492928988  0.02500698224011  0.9985519864615977  1.0000
  La  La2       1.0  0.2002650426271746  0.16357971801851967  0.7486139877486881  1.0000
  La  La3       1.0  0.15336935992997425  0.6805331719227832  0.5492459517479134  1.0000
  La  La4       1.0  0.7418539899123964  0.1308802986347768  0.2035881491366469  1.0000
