data_image0
_chemical_formula_structural       La4
_chemical_formula_sum              "La4"
_cell_length_a       3.79631058
_cell_length_b       3.7963124114957743
_cell_length_c       12.04125753
_cell_angle_alpha    90.0
_cell_angle_beta     90.0
_cell_angle_gamma    120.00000329189716

_space_group_name_H-M_alt    "P 1"
_space_group_IT_number       1

loop_
  _space_group_symop_operation_xyz
  'x, y, z'

loop_
  _atom_site_type_symbol
  _atom_site_label
  _atom_site_symmetry_multiplicity
  _atom_site_fract_x
  _atom_site_fract_y
  _atom_site_fract_z
  _atom_site_occupancy
  La  La1       1.0  0.09453093589332795  0.271441198749244  0.1035986296692899  1.0000
  La  La2       1.0  0.44276554169837556  0.18363783825759938  0.8108173155604581  1.0000
  La  La3       1.0  0.5718099637620238  0.2537001085504862  0.5447664962048977  1.0000
  La  La4       1.0  0.8908936662144207  0.291220878290801  0.0408175558120103  1.0000
