data_image0
_chemical_formula_structural       La4
_chemical_formula_sum              "La4"
_cell_length_a       3.79631058
_cell_length_b       3.7963124114957743
_cell_length_c       12.04125753
_cell_angle_alpha    90.0
_cell_angle_beta     90.0
_cell_angle_gamma    120.00000329189716

_space_group_name_H-M_alt    "P 1"
_space_group_IT_number       1

loop_
  _space_group_symop_operation_xyz
  'x, y, z'

loop_
  _atom_site_type_symbol
  _atom_site_label
  _atom_site_symmetry_multiplicity
  _atom_site_fract_x
  _atom_site_fract_y
  _atom_site_fract_z
  _atom_site_occupancy
  La  La1       1.0  0.788255323185238  0.28564477512501085  0.23910451728389726  1.0000
  La  La2       1.0  0.7640230039763249  0.538884637223747  0.600862174402971  1.0000
  La  La3       1.0  0.2300192476566636  0.353458234863572  0.13352939913457623  1.0000
  La  La4       1.0  0.21770233582159904  0.822012397191056  0.5265039551272301  1.0000
