data_image0
_chemical_formula_structural       La4
_chemical_formula_sum              "La4"
_cell_length_a       3.79631058
_cell_length_b       3.7963124114957743
_cell_length_c       12.04125753
_cell_angle_alpha    90.0
_cell_angle_beta     90.0
_cell_angle_gamma    120.00000329189716

_space_group_name_H-M_alt    "P 1"
_space_group_IT_number       1

loop_
  _space_group_symop_operation_xyz
  'x, y, z'

loop_
  _atom_site_type_symbol
  _atom_site_label
  _atom_site_symmetry_multiplicity
  _atom_site_fract_x
  _atom_site_fract_y
  _atom_site_fract_z
  _atom_site_occupancy
  La  La1       1.0  0.24788643196934945  0.22121361560718356  0.5541169584301855  1.0000
  La  La2       1.0  0.8316229428369324  0.5991171713497898  0.9505208224990921  1.0000
  La  La3       1.0  0.24699303259467165  0.2924739587939129  0.09166052607166364  1.0000
  La  La4       1.0  0.6734976268734307  0.887195366955023  0.9037017420009579  1.0000
