data_image0
_chemical_formula_structural       La4
_chemical_formula_sum              "La4"
_cell_length_a       3.79631058
_cell_length_b       3.7963124114957743
_cell_length_c       12.04125753
_cell_angle_alpha    90.0
_cell_angle_beta     90.0
_cell_angle_gamma    120.00000329189716

_space_group_name_H-M_alt    "P 1"
_space_group_IT_number       1

loop_
  _space_group_symop_operation_xyz
  'x, y, z'

loop_
  _atom_site_type_symbol
  _atom_site_label
  _atom_site_symmetry_multiplicity
  _atom_site_fract_x
  _atom_site_fract_y
  _atom_site_fract_z
  _atom_site_occupancy
  La  La1       1.0  0.562109051443497  0.49376110065847456  0.638663576137211  1.0000
  La  La2       1.0  0.2848352688320255  0.7121064503675578  0.9467801195673258  1.0000
  La  La3       1.0  0.5420911236562909  0.373083465745101  0.8751438342486786  1.0000
  La  La4       1.0  0.6109646191507849  0.4210491633030635  0.039412531437271525  1.0000
