data_image0
_chemical_formula_structural       La4
_chemical_formula_sum              "La4"
_cell_length_a       3.79631058
_cell_length_b       3.7963124114957743
_cell_length_c       12.04125753
_cell_angle_alpha    90.0
_cell_angle_beta     90.0
_cell_angle_gamma    120.00000329189716

_space_group_name_H-M_alt    "P 1"
_space_group_IT_number       1

loop_
  _space_group_symop_operation_xyz
  'x, y, z'

loop_
  _atom_site_type_symbol
  _atom_site_label
  _atom_site_symmetry_multiplicity
  _atom_site_fract_x
  _atom_site_fract_y
  _atom_site_fract_z
  _atom_site_occupancy
  La  La1       1.0  0.9477410368397585  0.9282730251631013  0.4939510521565511  1.0000
  La  La2       1.0  0.5993467108633777  0.1845985904221532  0.05046275890925056  1.0000
  La  La3       1.0  0.09942415373749647  0.3876773020642261  0.8874641952182216  1.0000
  La  La4       1.0  0.3534882519675442  0.4994511906790695  0.068121994380685  1.0000
