data_image0
_chemical_formula_structural       La4
_chemical_formula_sum              "La4"
_cell_length_a       3.79631058
_cell_length_b       3.7963124114957743
_cell_length_c       12.04125753
_cell_angle_alpha    90.0
_cell_angle_beta     90.0
_cell_angle_gamma    120.00000329189716

_space_group_name_H-M_alt    "P 1"
_space_group_IT_number       1

loop_
  _space_group_symop_operation_xyz
  'x, y, z'

loop_
  _atom_site_type_symbol
  _atom_site_label
  _atom_site_symmetry_multiplicity
  _atom_site_fract_x
  _atom_site_fract_y
  _atom_site_fract_z
  _atom_site_occupancy
  La  La1       1.0  0.1177267344264461  0.1413673280035077  0.7795189261385769  1.0000
  La  La2       1.0  0.5824667145399438  0.028424471401596207  0.9186821139395605  1.0000
  La  La3       1.0  0.926345360368896  0.6960688629926484  0.7368473697573587  1.0000
  La  La4       1.0  0.37346122102372714  0.1341395206367988  0.06495167305119143  1.0000
