data_image0
_chemical_formula_structural       La4
_chemical_formula_sum              "La4"
_cell_length_a       3.79631058
_cell_length_b       3.7963124114957743
_cell_length_c       12.04125753
_cell_angle_alpha    90.0
_cell_angle_beta     90.0
_cell_angle_gamma    120.00000329189716

_space_group_name_H-M_alt    "P 1"
_space_group_IT_number       1

loop_
  _space_group_symop_operation_xyz
  'x, y, z'

loop_
  _atom_site_type_symbol
  _atom_site_label
  _atom_site_symmetry_multiplicity
  _atom_site_fract_x
  _atom_site_fract_y
  _atom_site_fract_z
  _atom_site_occupancy
  La  La1       1.0  0.9276025282200848  0.147519346657087  0.05178043477187444  1.0000
  La  La2       1.0  0.7028015412088191  0.5679124230771126  0.5686598311197565  1.0000
  La  La3       1.0  0.18942114274340183  0.04550517572548829  0.820769016280114  1.0000
  La  La4       1.0  0.18017482942841312  0.23906322565874305  0.05879079159682554  1.0000
