data_image0
_chemical_formula_structural       La4
_chemical_formula_sum              "La4"
_cell_length_a       3.79631058
_cell_length_b       3.7963124114957743
_cell_length_c       12.04125753
_cell_angle_alpha    90.0
_cell_angle_beta     90.0
_cell_angle_gamma    120.00000329189716

_space_group_name_H-M_alt    "P 1"
_space_group_IT_number       1

loop_
  _space_group_symop_operation_xyz
  'x, y, z'

loop_
  _atom_site_type_symbol
  _atom_site_label
  _atom_site_symmetry_multiplicity
  _atom_site_fract_x
  _atom_site_fract_y
  _atom_site_fract_z
  _atom_site_occupancy
  La  La1       1.0  0.6815358564854463  0.7328637509371481  0.9891703309451523  1.0000
  La  La2       1.0  0.5168389232597992  0.6076058311421138  0.839575603537513  1.0000
  La  La3       1.0  0.6078480803333051  0.9887298378150433  0.7217392633676729  1.0000
  La  La4       1.0  0.19377715797228134  0.6708005835774298  0.9495148023432926  1.0000
