data_image0
_chemical_formula_structural       La4
_chemical_formula_sum              "La4"
_cell_length_a       3.79631058
_cell_length_b       3.7963124114957743
_cell_length_c       12.04125753
_cell_angle_alpha    90.0
_cell_angle_beta     90.0
_cell_angle_gamma    120.00000329189716

_space_group_name_H-M_alt    "P 1"
_space_group_IT_number       1

loop_
  _space_group_symop_operation_xyz
  'x, y, z'

loop_
  _atom_site_type_symbol
  _atom_site_label
  _atom_site_symmetry_multiplicity
  _atom_site_fract_x
  _atom_site_fract_y
  _atom_site_fract_z
  _atom_site_occupancy
  La  La1       1.0  0.2948505838172615  0.6582782293901452  0.14821913767298378  1.0000
  La  La2       1.0  0.12248282804579347  0.013700284836391852  0.5126011208070709  1.0000
  La  La3       1.0  0.19457615347881685  0.8993517082558959  0.8825468382241339  1.0000
  La  La4       1.0  0.38809051449360776  0.4286698235468158  0.9566328985247505  1.0000
