data_image0
_chemical_formula_structural       La4
_chemical_formula_sum              "La4"
_cell_length_a       3.79631058
_cell_length_b       3.7963124114957743
_cell_length_c       12.04125753
_cell_angle_alpha    90.0
_cell_angle_beta     90.0
_cell_angle_gamma    120.00000329189716

_space_group_name_H-M_alt    "P 1"
_space_group_IT_number       1

loop_
  _space_group_symop_operation_xyz
  'x, y, z'

loop_
  _atom_site_type_symbol
  _atom_site_label
  _atom_site_symmetry_multiplicity
  _atom_site_fract_x
  _atom_site_fract_y
  _atom_site_fract_z
  _atom_site_occupancy
  La  La1       1.0  0.06199516019098539  0.6084096940837771  0.19980815084376724  1.0000
  La  La2       1.0  0.9718387604491681  0.9253462945152062  0.1093098073774128  1.0000
  La  La3       1.0  0.7976934587220441  0.42890822956291164  0.07046582223799369  1.0000
  La  La4       1.0  0.16847263349878094  0.037335787683684174  0.12041621945724723  1.0000
