data_image0
_chemical_formula_structural       La4
_chemical_formula_sum              "La4"
_cell_length_a       3.79631058
_cell_length_b       3.7963124114957743
_cell_length_c       12.04125753
_cell_angle_alpha    90.0
_cell_angle_beta     90.0
_cell_angle_gamma    120.00000329189716

_space_group_name_H-M_alt    "P 1"
_space_group_IT_number       1

loop_
  _space_group_symop_operation_xyz
  'x, y, z'

loop_
  _atom_site_type_symbol
  _atom_site_label
  _atom_site_symmetry_multiplicity
  _atom_site_fract_x
  _atom_site_fract_y
  _atom_site_fract_z
  _atom_site_occupancy
  La  La1       1.0  0.4114417317164989  0.1564748230868538  0.7848989366835477  1.0000
  La  La2       1.0  0.938947635067021  0.22991154071254893  0.7194877844113554  1.0000
  La  La3       1.0  0.8200504186251489  0.6355342995681958  0.5294775922976522  1.0000
  La  La4       1.0  0.8295603250525208  0.9780794304632003  0.46613568066377553  1.0000
