data_image0
_chemical_formula_structural       La4
_chemical_formula_sum              "La4"
_cell_length_a       3.79631058
_cell_length_b       3.7963124114957743
_cell_length_c       12.04125753
_cell_angle_alpha    90.0
_cell_angle_beta     90.0
_cell_angle_gamma    120.00000329189716

_space_group_name_H-M_alt    "P 1"
_space_group_IT_number       1

loop_
  _space_group_symop_operation_xyz
  'x, y, z'

loop_
  _atom_site_type_symbol
  _atom_site_label
  _atom_site_symmetry_multiplicity
  _atom_site_fract_x
  _atom_site_fract_y
  _atom_site_fract_z
  _atom_site_occupancy
  La  La1       1.0  0.1344103856233554  0.8018032897581797  0.8796339782551952  1.0000
  La  La2       1.0  0.6921760883129053  0.6853587721051966  0.39443645872990607  1.0000
  La  La3       1.0  0.5859871972682633  0.7408769948598675  0.1046753974201417  1.0000
  La  La4       1.0  0.587426244936907  0.7719609933343676  0.12125421421644234  1.0000
