data_image0
_chemical_formula_structural       La4
_chemical_formula_sum              "La4"
_cell_length_a       3.79631058
_cell_length_b       3.7963124114957743
_cell_length_c       12.04125753
_cell_angle_alpha    90.0
_cell_angle_beta     90.0
_cell_angle_gamma    120.00000329189716

_space_group_name_H-M_alt    "P 1"
_space_group_IT_number       1

loop_
  _space_group_symop_operation_xyz
  'x, y, z'

loop_
  _atom_site_type_symbol
  _atom_site_label
  _atom_site_symmetry_multiplicity
  _atom_site_fract_x
  _atom_site_fract_y
  _atom_site_fract_z
  _atom_site_occupancy
  La  La1       1.0  0.11190655070028122  0.11597659164891683  0.9784694898655992  1.0000
  La  La2       1.0  0.776200043458747  0.46455857666843237  0.9257868175547639  1.0000
  La  La3       1.0  0.837695914360153  0.054955994212588344  0.2049099856922123  1.0000
  La  La4       1.0  0.274197500577559  0.36450897523701387  0.390833789409303  1.0000
