data_image0
_chemical_formula_structural       Li4O4
_chemical_formula_sum              "Li4 O4"
_cell_length_a       3.10263483
_cell_length_b       3.1026338289526874
_cell_length_c       7.56992946
_cell_angle_alpha    90.0
_cell_angle_beta     90.0
_cell_angle_gamma    119.99998945596172

_space_group_name_H-M_alt    "P 1"
_space_group_IT_number       1

loop_
  _space_group_symop_operation_xyz
  'x, y, z'

loop_
  _atom_site_type_symbol
  _atom_site_label
  _atom_site_symmetry_multiplicity
  _atom_site_fract_x
  _atom_site_fract_y
  _atom_site_fract_z
  _atom_site_occupancy
  Li  Li1       1.0  0.2270879238843193  0.7498176043625993  0.8395733873972873  1.0000
  Li  Li2       1.0  0.6918433255783896  0.5988179438567869  0.9089039980571911  1.0000
  Li  Li3       1.0  0.799349947088345  0.5598781852841341  0.12427720506566686  1.0000
  Li  Li4       1.0  0.2567007697895036  0.36910930981557755  0.37653542613052693  1.0000
  O   O1        1.0  0.9515981112852367  0.24602783225502378  0.1862208271690946  1.0000
  O   O2        1.0  0.3683948460213884  0.9143811374486859  0.26993811310487814  1.0000
  O   O3        1.0  0.39699405152286005  0.4566081887993021  0.6585987757914431  1.0000
  O   O4        1.0  0.6514548809021028  0.8922351590969981  0.2908136068110405  1.0000
