data_image0
_chemical_formula_structural       Li4O4
_chemical_formula_sum              "Li4 O4"
_cell_length_a       3.10263483
_cell_length_b       3.1026338289526874
_cell_length_c       7.56992946
_cell_angle_alpha    90.0
_cell_angle_beta     90.0
_cell_angle_gamma    119.99998945596172

_space_group_name_H-M_alt    "P 1"
_space_group_IT_number       1

loop_
  _space_group_symop_operation_xyz
  'x, y, z'

loop_
  _atom_site_type_symbol
  _atom_site_label
  _atom_site_symmetry_multiplicity
  _atom_site_fract_x
  _atom_site_fract_y
  _atom_site_fract_z
  _atom_site_occupancy
  Li  Li1       1.0  0.3152413720854099  0.3747723844395381  0.10789805685820397  1.0000
  Li  Li2       1.0  0.3429955969204741  0.6769083459257317  0.2118276594671915  1.0000
  Li  Li3       1.0  0.5401100886573786  0.7135051056376085  0.43098793205505803  1.0000
  Li  Li4       1.0  0.8644549658543994  0.044170077961371845  0.3954332284004418  1.0000
  O   O1        1.0  0.3005700667068645  0.1508007804525242  0.5325949815677298  1.0000
  O   O2        1.0  0.6435070436881887  0.7520937491299549  0.013957788026061735  1.0000
  O   O3        1.0  0.8524887194198101  0.3496388824791481  0.1768765305583777  1.0000
  O   O4        1.0  0.2153387684196062  0.3304730411016319  0.3996981153247443  1.0000
