data_image0
_chemical_formula_structural       Li4O4
_chemical_formula_sum              "Li4 O4"
_cell_length_a       3.10263483
_cell_length_b       3.1026338289526874
_cell_length_c       7.56992946
_cell_angle_alpha    90.0
_cell_angle_beta     90.0
_cell_angle_gamma    119.99998945596172

_space_group_name_H-M_alt    "P 1"
_space_group_IT_number       1

loop_
  _space_group_symop_operation_xyz
  'x, y, z'

loop_
  _atom_site_type_symbol
  _atom_site_label
  _atom_site_symmetry_multiplicity
  _atom_site_fract_x
  _atom_site_fract_y
  _atom_site_fract_z
  _atom_site_occupancy
  Li  Li1       1.0  0.6644428714565862  0.001969843624550549  0.9501810369025918  1.0000
  Li  Li2       1.0  0.40540895663012577  0.2629577013034492  0.9679230805088039  1.0000
  Li  Li3       1.0  0.09776536036351047  0.2402645199364546  0.6257002049571341  1.0000
  Li  Li4       1.0  0.256348377602567  0.3645116239665782  0.7199261063683622  1.0000
  O   O1        1.0  0.26385246532844775  0.9787388053609121  0.7658102336209041  1.0000
  O   O2        1.0  0.08028798292208705  0.27235094529468284  0.30803291720919646  1.0000
  O   O3        1.0  0.9983724353452565  0.6265166980428933  0.9160429104389465  1.0000
  O   O4        1.0  0.8571860632712003  0.7969402086522699  0.9713695586035005  1.0000
