data_image0
_chemical_formula_structural       Li4O4
_chemical_formula_sum              "Li4 O4"
_cell_length_a       3.10263483
_cell_length_b       3.1026338289526874
_cell_length_c       7.56992946
_cell_angle_alpha    90.0
_cell_angle_beta     90.0
_cell_angle_gamma    119.99998945596172

_space_group_name_H-M_alt    "P 1"
_space_group_IT_number       1

loop_
  _space_group_symop_operation_xyz
  'x, y, z'

loop_
  _atom_site_type_symbol
  _atom_site_label
  _atom_site_symmetry_multiplicity
  _atom_site_fract_x
  _atom_site_fract_y
  _atom_site_fract_z
  _atom_site_occupancy
  Li  Li1       1.0  0.9068813328644012  0.9908611505843226  0.45417615992880656  1.0000
  Li  Li2       1.0  0.7296339218620744  0.6424516400813932  0.5090019568645587  1.0000
  Li  Li3       1.0  0.8634891393366395  0.3308285020405677  0.26042234255799457  1.0000
  Li  Li4       1.0  0.6711752908280246  0.42419782218504665  0.5820269409233125  1.0000
  O   O1        1.0  0.08683485226947596  0.5336106468550881  0.7948894717150292  1.0000
  O   O2        1.0  0.4171826732620829  0.6012798213078554  0.809730580869342  1.0000
  O   O3        1.0  0.6506547897646087  0.8766541033760085  0.04345825911373069  1.0000
  O   O4        1.0  0.9554096148591213  0.3131753316183221  0.19200894918970723  1.0000
