data_image0
_chemical_formula_structural       Li4O4
_chemical_formula_sum              "Li4 O4"
_cell_length_a       3.10263483
_cell_length_b       3.1026338289526874
_cell_length_c       7.56992946
_cell_angle_alpha    90.0
_cell_angle_beta     90.0
_cell_angle_gamma    119.99998945596172

_space_group_name_H-M_alt    "P 1"
_space_group_IT_number       1

loop_
  _space_group_symop_operation_xyz
  'x, y, z'

loop_
  _atom_site_type_symbol
  _atom_site_label
  _atom_site_symmetry_multiplicity
  _atom_site_fract_x
  _atom_site_fract_y
  _atom_site_fract_z
  _atom_site_occupancy
  Li  Li1       1.0  0.8006425790723029  0.8531208965514382  0.3588187503882665  1.0000
  Li  Li2       1.0  0.28609099207832855  0.8377514172265279  0.3137371174416508  1.0000
  Li  Li3       1.0  0.9201852490071332  0.11798699661045475  0.22171772833504377  1.0000
  Li  Li4       1.0  0.017779706419997154  0.8811498220829179  0.7905066456189207  1.0000
  O   O1        1.0  0.7238394238427333  0.5020839422883707  0.2673292135662422  1.0000
  O   O2        1.0  0.5063374055922623  0.3850140554074173  0.2633881211614266  1.0000
  O   O3        1.0  0.11327969870276888  0.5549582557967376  0.17094625102170014  1.0000
  O   O4        1.0  0.9360501412944728  0.8565619496852772  0.4685594534127073  1.0000
