data_image0
_chemical_formula_structural       Li4O4
_chemical_formula_sum              "Li4 O4"
_cell_length_a       3.10263483
_cell_length_b       3.1026338289526874
_cell_length_c       7.56992946
_cell_angle_alpha    90.0
_cell_angle_beta     90.0
_cell_angle_gamma    119.99998945596172

_space_group_name_H-M_alt    "P 1"
_space_group_IT_number       1

loop_
  _space_group_symop_operation_xyz
  'x, y, z'

loop_
  _atom_site_type_symbol
  _atom_site_label
  _atom_site_symmetry_multiplicity
  _atom_site_fract_x
  _atom_site_fract_y
  _atom_site_fract_z
  _atom_site_occupancy
  Li  Li1       1.0  0.9320573369361398  0.6018070780314702  0.04308576134599207  1.0000
  Li  Li2       1.0  0.7665876932748716  0.8087975649509929  0.5676979407827298  1.0000
  Li  Li3       1.0  0.006722944106734019  0.006937418927691397  0.5529671950272932  1.0000
  Li  Li4       1.0  0.6723113249932524  0.6176285253200149  0.23917088336114745  1.0000
  O   O1        1.0  0.6738160720512099  0.7867502404033786  0.4344255684530687  1.0000
  O   O2        1.0  0.16165233347643948  0.26520144465308704  0.03533263275654974  1.0000
  O   O3        1.0  0.4626236654537479  0.37832544119839895  0.10253862390334234  1.0000
  O   O4        1.0  0.9861423468005999  0.013144309453007708  0.5446778976210638  1.0000
