data_image0
_chemical_formula_structural       Li4O4
_chemical_formula_sum              "Li4 O4"
_cell_length_a       3.10263483
_cell_length_b       3.1026338289526874
_cell_length_c       7.56992946
_cell_angle_alpha    90.0
_cell_angle_beta     90.0
_cell_angle_gamma    119.99998945596172

_space_group_name_H-M_alt    "P 1"
_space_group_IT_number       1

loop_
  _space_group_symop_operation_xyz
  'x, y, z'

loop_
  _atom_site_type_symbol
  _atom_site_label
  _atom_site_symmetry_multiplicity
  _atom_site_fract_x
  _atom_site_fract_y
  _atom_site_fract_z
  _atom_site_occupancy
  Li  Li1       1.0  0.7171795599830908  0.9059966799563881  0.6398009382450027  1.0000
  Li  Li2       1.0  0.9538777253175112  0.6269815035573352  0.30511400263785493  1.0000
  Li  Li3       1.0  0.3938533295487723  0.34081808488171816  0.39337405571624373  1.0000
  Li  Li4       1.0  0.7738182629799475  0.7937081687310954  0.36604410602054127  1.0000
  O   O1        1.0  0.9074375805659116  0.7746133967736206  0.3898297385816196  1.0000
  O   O2        1.0  0.726159599141404  0.748405295608741  0.28821753985094745  1.0000
  O   O3        1.0  0.7029669825147238  0.9791097672543625  0.16576521747123252  1.0000
  O   O4        1.0  0.13267594992279186  0.8224924824087845  0.05685188928954332  1.0000
