data_image0
_chemical_formula_structural       Li4O4
_chemical_formula_sum              "Li4 O4"
_cell_length_a       3.10263483
_cell_length_b       3.1026338289526874
_cell_length_c       7.56992946
_cell_angle_alpha    90.0
_cell_angle_beta     90.0
_cell_angle_gamma    119.99998945596172

_space_group_name_H-M_alt    "P 1"
_space_group_IT_number       1

loop_
  _space_group_symop_operation_xyz
  'x, y, z'

loop_
  _atom_site_type_symbol
  _atom_site_label
  _atom_site_symmetry_multiplicity
  _atom_site_fract_x
  _atom_site_fract_y
  _atom_site_fract_z
  _atom_site_occupancy
  Li  Li1       1.0  0.8855704434681471  0.8555521682509806  0.7909449243178983  1.0000
  Li  Li2       1.0  0.18224468285501416  0.5423428370325549  0.5169316582809689  1.0000
  Li  Li3       1.0  0.29844353216737574  0.5215556643486892  0.01376473717062865  1.0000
  Li  Li4       1.0  0.8058569844122054  0.9109165295397599  0.9794149572669619  1.0000
  O   O1        1.0  0.4206708068971068  0.830370113675766  0.8305887448728995  1.0000
  O   O2        1.0  0.1271977288467312  0.8403250160919455  0.6758716997443663  1.0000
  O   O3        1.0  0.18374059613111626  0.14635975401135504  0.7416661310576345  1.0000
  O   O4        1.0  0.27215949956033825  0.34815065153055613  0.79884939495303  1.0000
