data_image0
_chemical_formula_structural       Li4O4
_chemical_formula_sum              "Li4 O4"
_cell_length_a       3.10263483
_cell_length_b       3.1026338289526874
_cell_length_c       7.56992946
_cell_angle_alpha    90.0
_cell_angle_beta     90.0
_cell_angle_gamma    119.99998945596172

_space_group_name_H-M_alt    "P 1"
_space_group_IT_number       1

loop_
  _space_group_symop_operation_xyz
  'x, y, z'

loop_
  _atom_site_type_symbol
  _atom_site_label
  _atom_site_symmetry_multiplicity
  _atom_site_fract_x
  _atom_site_fract_y
  _atom_site_fract_z
  _atom_site_occupancy
  Li  Li1       1.0  0.8247422205122223  0.015563982166298729  0.5837950599970068  1.0000
  Li  Li2       1.0  0.4294558068742518  0.9872006672608364  0.33006311017973644  1.0000
  Li  Li3       1.0  0.33560878242245806  0.3390756333089051  0.3017928547590889  1.0000
  Li  Li4       1.0  0.613080383218513  0.8693628394467829  0.5829146266577547  1.0000
  O   O1        1.0  0.023402220651313144  0.5599225047416034  0.9837557568686686  1.0000
  O   O2        1.0  0.5498245085939004  0.8712007273701907  0.07197879083573167  1.0000
  O   O3        1.0  0.46942011413387474  0.5468850641739191  0.5862390397503441  1.0000
  O   O4        1.0  0.3673347420631998  0.3644778448653838  0.6488292502525113  1.0000
