data_image0
_chemical_formula_structural       Li4O4
_chemical_formula_sum              "Li4 O4"
_cell_length_a       3.10263483
_cell_length_b       3.1026338289526874
_cell_length_c       7.56992946
_cell_angle_alpha    90.0
_cell_angle_beta     90.0
_cell_angle_gamma    119.99998945596172

_space_group_name_H-M_alt    "P 1"
_space_group_IT_number       1

loop_
  _space_group_symop_operation_xyz
  'x, y, z'

loop_
  _atom_site_type_symbol
  _atom_site_label
  _atom_site_symmetry_multiplicity
  _atom_site_fract_x
  _atom_site_fract_y
  _atom_site_fract_z
  _atom_site_occupancy
  Li  Li1       1.0  0.263089944336528  0.9479642659984364  0.9003410068390423  1.0000
  Li  Li2       1.0  0.4216652212063252  0.5794505994999781  0.9937787080584144  1.0000
  Li  Li3       1.0  0.7594075890370817  0.4389334147432322  0.32510857657128955  1.0000
  Li  Li4       1.0  0.46807831368259656  0.5623106066770127  0.25832274408745937  1.0000
  O   O1        1.0  0.32243387757579  0.96995955362366  0.366311828337901  1.0000
  O   O2        1.0  0.9636206549368183  0.8491876799503792  0.7222606549058703  1.0000
  O   O3        1.0  0.456955153795235  0.3189335410475209  0.891652787256028  1.0000
  O   O4        1.0  0.05059229433301482  0.5761981065457622  0.5301391741609542  1.0000
