data_image0
_chemical_formula_structural       Li4O4
_chemical_formula_sum              "Li4 O4"
_cell_length_a       3.10263483
_cell_length_b       3.1026338289526874
_cell_length_c       7.56992946
_cell_angle_alpha    90.0
_cell_angle_beta     90.0
_cell_angle_gamma    119.99998945596172

_space_group_name_H-M_alt    "P 1"
_space_group_IT_number       1

loop_
  _space_group_symop_operation_xyz
  'x, y, z'

loop_
  _atom_site_type_symbol
  _atom_site_label
  _atom_site_symmetry_multiplicity
  _atom_site_fract_x
  _atom_site_fract_y
  _atom_site_fract_z
  _atom_site_occupancy
  Li  Li1       1.0  0.03697219482966574  0.6304884424466906  0.4268537198357336  1.0000
  Li  Li2       1.0  0.12163912243352115  0.6601875294891926  0.48011203303178007  1.0000
  Li  Li3       1.0  0.4846287341953399  0.4133750715814948  0.7240367472450586  1.0000
  Li  Li4       1.0  0.7899778560258603  0.9163220472150826  0.4115058563502316  1.0000
  O   O1        1.0  0.5023197850912773  0.14594980738621643  0.12479153169445567  1.0000
  O   O2        1.0  0.8021322492284639  0.07414803635639089  0.2794019995932402  1.0000
  O   O3        1.0  0.5267621536912124  0.6591382472818808  0.5976972367888287  1.0000
  O   O4        1.0  0.8294993380435045  0.562735026477398  0.9369519267133057  1.0000
