data_image0
_chemical_formula_structural       Li4O4
_chemical_formula_sum              "Li4 O4"
_cell_length_a       3.10263483
_cell_length_b       3.1026338289526874
_cell_length_c       7.56992946
_cell_angle_alpha    90.0
_cell_angle_beta     90.0
_cell_angle_gamma    119.99998945596172

_space_group_name_H-M_alt    "P 1"
_space_group_IT_number       1

loop_
  _space_group_symop_operation_xyz
  'x, y, z'

loop_
  _atom_site_type_symbol
  _atom_site_label
  _atom_site_symmetry_multiplicity
  _atom_site_fract_x
  _atom_site_fract_y
  _atom_site_fract_z
  _atom_site_occupancy
  Li  Li1       1.0  0.33805254430142817  0.9587111772639716  0.22888427214823537  1.0000
  Li  Li2       1.0  0.8673832623017006  0.5466636279584804  0.6749747480501398  1.0000
  Li  Li3       1.0  0.8469851262111803  0.03828861397510641  0.824787222710583  1.0000
  Li  Li4       1.0  0.4496098711054941  0.7389922097828077  0.8606469159180534  1.0000
  O   O1        1.0  0.5413653670838023  0.46879943131800417  0.9659576850456162  1.0000
  O   O2        1.0  0.10509060101843204  0.4975163322840288  0.30735818042600727  1.0000
  O   O3        1.0  0.7059855681459553  0.22247404829128392  0.5142266119861318  1.0000
  O   O4        1.0  0.6728251801961607  0.751392379879519  0.5805793298352313  1.0000
