data_image0
_chemical_formula_structural       Li4O4
_chemical_formula_sum              "Li4 O4"
_cell_length_a       3.10263483
_cell_length_b       3.1026338289526874
_cell_length_c       7.56992946
_cell_angle_alpha    90.0
_cell_angle_beta     90.0
_cell_angle_gamma    119.99998945596172

_space_group_name_H-M_alt    "P 1"
_space_group_IT_number       1

loop_
  _space_group_symop_operation_xyz
  'x, y, z'

loop_
  _atom_site_type_symbol
  _atom_site_label
  _atom_site_symmetry_multiplicity
  _atom_site_fract_x
  _atom_site_fract_y
  _atom_site_fract_z
  _atom_site_occupancy
  Li  Li1       1.0  0.1380861681445218  0.251595198680036  0.5820024056671382  1.0000
  Li  Li2       1.0  0.4702873797302658  0.30607594381450376  0.2988928888520821  1.0000
  Li  Li3       1.0  0.6867770358592082  0.8140517536060656  0.29664135966611305  1.0000
  Li  Li4       1.0  0.6930594874731861  0.9146294468706024  0.679065124304099  1.0000
  O   O1        1.0  0.9713613077179808  0.4221080719763677  0.41761992250157665  1.0000
  O   O2        1.0  0.7014938370034045  0.9628394741019193  0.747322153564479  1.0000
  O   O3        1.0  0.9119816677887678  0.9923351546967538  0.8096011212872298  1.0000
  O   O4        1.0  0.19918317771044514  0.5651245264670566  0.3774523979439657  1.0000
