data_image0
_chemical_formula_structural       Li4O4
_chemical_formula_sum              "Li4 O4"
_cell_length_a       3.10263483
_cell_length_b       3.1026338289526874
_cell_length_c       7.56992946
_cell_angle_alpha    90.0
_cell_angle_beta     90.0
_cell_angle_gamma    119.99998945596172

_space_group_name_H-M_alt    "P 1"
_space_group_IT_number       1

loop_
  _space_group_symop_operation_xyz
  'x, y, z'

loop_
  _atom_site_type_symbol
  _atom_site_label
  _atom_site_symmetry_multiplicity
  _atom_site_fract_x
  _atom_site_fract_y
  _atom_site_fract_z
  _atom_site_occupancy
  Li  Li1       1.0  0.8759119047382988  0.843319130404538  0.6878766973146213  1.0000
  Li  Li2       1.0  0.876225854086556  0.44595894734459307  0.5260984721518867  1.0000
  Li  Li3       1.0  0.6864203131925137  0.9635353859831781  0.6132770250455621  1.0000
  Li  Li4       1.0  0.7526482309299212  0.5888940702499781  0.22197259493160004  1.0000
  O   O1        1.0  0.6722980661023996  0.5929183065858439  0.006889523786586693  1.0000
  O   O2        1.0  0.14708171967991746  0.31006803774793923  0.44350231886890157  1.0000
  O   O3        1.0  0.22386401818383916  0.5155308068090605  0.3688809739135195  1.0000
  O   O4        1.0  0.6179360053908063  0.7744095609908968  0.30824132192888243  1.0000
