data_image0
_chemical_formula_structural       Li4O4
_chemical_formula_sum              "Li4 O4"
_cell_length_a       3.10263483
_cell_length_b       3.1026338289526874
_cell_length_c       7.56992946
_cell_angle_alpha    90.0
_cell_angle_beta     90.0
_cell_angle_gamma    119.99998945596172

_space_group_name_H-M_alt    "P 1"
_space_group_IT_number       1

loop_
  _space_group_symop_operation_xyz
  'x, y, z'

loop_
  _atom_site_type_symbol
  _atom_site_label
  _atom_site_symmetry_multiplicity
  _atom_site_fract_x
  _atom_site_fract_y
  _atom_site_fract_z
  _atom_site_occupancy
  Li  Li1       1.0  0.07644115330793966  0.6124560537027577  0.35376270570128554  1.0000
  Li  Li2       1.0  0.5676690197174565  0.1951316979702682  0.5042193930456405  1.0000
  Li  Li3       1.0  0.005410945949549273  0.3165801070493046  0.5731159337596576  1.0000
  Li  Li4       1.0  0.17052800401662083  0.5512349139449952  0.9320284637885159  1.0000
  O   O1        1.0  0.19974318048870998  0.8266384809899421  0.5711511785104157  1.0000
  O   O2        1.0  0.3913192053202721  0.15836638388988433  0.8423343769529694  1.0000
  O   O3        1.0  0.10734250723795924  0.023697860046432595  0.8157398559729181  1.0000
  O   O4        1.0  0.8246206807013028  0.7607371771854474  0.9894163080215108  1.0000
