data_image0
_chemical_formula_structural       Li4O4
_chemical_formula_sum              "Li4 O4"
_cell_length_a       3.10263483
_cell_length_b       3.1026338289526874
_cell_length_c       7.56992946
_cell_angle_alpha    90.0
_cell_angle_beta     90.0
_cell_angle_gamma    119.99998945596172

_space_group_name_H-M_alt    "P 1"
_space_group_IT_number       1

loop_
  _space_group_symop_operation_xyz
  'x, y, z'

loop_
  _atom_site_type_symbol
  _atom_site_label
  _atom_site_symmetry_multiplicity
  _atom_site_fract_x
  _atom_site_fract_y
  _atom_site_fract_z
  _atom_site_occupancy
  Li  Li1       1.0  0.47389929540747744  0.14147766743121792  0.7614751862317846  1.0000
  Li  Li2       1.0  0.1430432314936354  0.1023853836917823  0.7451483753547379  1.0000
  Li  Li3       1.0  0.30684079749683235  0.15619412769682128  0.10294508183653761  1.0000
  Li  Li4       1.0  0.9972449193913064  0.01594996583213515  0.6046523811829942  1.0000
  O   O1        1.0  0.36592176821824296  0.27612122815015283  0.08662138540119813  1.0000
  O   O2        1.0  0.9941493108989192  0.6020232430035293  0.6169320537959209  1.0000
  O   O3        1.0  0.8953404494528314  0.7426328459873766  0.2216813243427751  1.0000
  O   O4        1.0  0.5006648555582895  0.5417331698803025  0.22890169039381192  1.0000
