data_image0
_chemical_formula_structural       Li4O4
_chemical_formula_sum              "Li4 O4"
_cell_length_a       3.10263483
_cell_length_b       3.1026338289526874
_cell_length_c       7.56992946
_cell_angle_alpha    90.0
_cell_angle_beta     90.0
_cell_angle_gamma    119.99998945596172

_space_group_name_H-M_alt    "P 1"
_space_group_IT_number       1

loop_
  _space_group_symop_operation_xyz
  'x, y, z'

loop_
  _atom_site_type_symbol
  _atom_site_label
  _atom_site_symmetry_multiplicity
  _atom_site_fract_x
  _atom_site_fract_y
  _atom_site_fract_z
  _atom_site_occupancy
  Li  Li1       1.0  0.0010509128023983294  0.10089381699698663  0.929586710145589  1.0000
  Li  Li2       1.0  0.679071639271541  0.2725267531294042  0.3998151314236904  1.0000
  Li  Li3       1.0  0.08144309577058984  0.23133326667571907  0.41164259141777393  1.0000
  Li  Li4       1.0  0.9432794088322076  0.9288214393555663  0.06463684403717807  1.0000
  O   O1        1.0  0.7565861696680329  0.8295844070962382  0.31395856967840974  1.0000
  O   O2        1.0  0.3097222879754584  0.2556254781069711  0.2872870232751392  1.0000
  O   O3        1.0  0.9957806715476991  0.6743303952723441  0.6664532670076913  1.0000
  O   O4        1.0  0.5652290341427744  0.5042716653553683  0.3114627809850852  1.0000
