data_image0
_chemical_formula_structural       Li4O4
_chemical_formula_sum              "Li4 O4"
_cell_length_a       3.10263483
_cell_length_b       3.1026338289526874
_cell_length_c       7.56992946
_cell_angle_alpha    90.0
_cell_angle_beta     90.0
_cell_angle_gamma    119.99998945596172

_space_group_name_H-M_alt    "P 1"
_space_group_IT_number       1

loop_
  _space_group_symop_operation_xyz
  'x, y, z'

loop_
  _atom_site_type_symbol
  _atom_site_label
  _atom_site_symmetry_multiplicity
  _atom_site_fract_x
  _atom_site_fract_y
  _atom_site_fract_z
  _atom_site_occupancy
  Li  Li1       1.0  0.7531131037328613  0.5218713951056344  0.49085137112680144  1.0000
  Li  Li2       1.0  0.6794151493682818  0.7198867484941811  0.45583389320812806  1.0000
  Li  Li3       1.0  0.9145899814528526  0.9812925419117491  0.1322522931778849  1.0000
  Li  Li4       1.0  0.8366232768712685  0.8643980476325268  0.8027120892337205  1.0000
  O   O1        1.0  0.9951229708288238  0.23063749816757095  0.3143713809494826  1.0000
  O   O2        1.0  0.9661777928027036  0.433684470404458  0.004556305957027718  1.0000
  O   O3        1.0  0.005630370337406987  0.9834184815411859  0.6079753699784085  1.0000
  O   O4        1.0  0.6653563646149792  0.5283494393715884  0.35145126131540305  1.0000
