data_image0
_chemical_formula_structural       Li4O4
_chemical_formula_sum              "Li4 O4"
_cell_length_a       3.10263483
_cell_length_b       3.1026338289526874
_cell_length_c       7.56992946
_cell_angle_alpha    90.0
_cell_angle_beta     90.0
_cell_angle_gamma    119.99998945596172

_space_group_name_H-M_alt    "P 1"
_space_group_IT_number       1

loop_
  _space_group_symop_operation_xyz
  'x, y, z'

loop_
  _atom_site_type_symbol
  _atom_site_label
  _atom_site_symmetry_multiplicity
  _atom_site_fract_x
  _atom_site_fract_y
  _atom_site_fract_z
  _atom_site_occupancy
  Li  Li1       1.0  0.22160157872442454  0.19578989034368988  0.777391175380977  1.0000
  Li  Li2       1.0  0.045925028848827765  0.02241207440171422  0.12915761801667003  1.0000
  Li  Li3       1.0  0.9767475455753214  0.7905294892733963  0.7104796128379292  1.0000
  Li  Li4       1.0  0.35292965269585963  0.7995071108317262  0.690722799919314  1.0000
  O   O1        1.0  0.6298534339605624  0.24952177962506994  0.7947318417154108  1.0000
  O   O2        1.0  0.4478554725194215  0.9714310198515292  0.703403638003099  1.0000
  O   O3        1.0  0.022820859034638374  0.5745147899366145  0.8002768833386895  1.0000
  O   O4        1.0  0.7994376081589287  0.68474672332612  0.2749235654760369  1.0000
