data_image0
_chemical_formula_structural       Li4O4
_chemical_formula_sum              "Li4 O4"
_cell_length_a       3.10263483
_cell_length_b       3.1026338289526874
_cell_length_c       7.56992946
_cell_angle_alpha    90.0
_cell_angle_beta     90.0
_cell_angle_gamma    119.99998945596172

_space_group_name_H-M_alt    "P 1"
_space_group_IT_number       1

loop_
  _space_group_symop_operation_xyz
  'x, y, z'

loop_
  _atom_site_type_symbol
  _atom_site_label
  _atom_site_symmetry_multiplicity
  _atom_site_fract_x
  _atom_site_fract_y
  _atom_site_fract_z
  _atom_site_occupancy
  Li  Li1       1.0  0.1329083893450429  0.13950118448933324  0.9047199307618641  1.0000
  Li  Li2       1.0  0.03241782534644244  0.6570398900853309  0.7022269952620741  1.0000
  Li  Li3       1.0  0.8491149967144462  0.6564455374777793  0.4604249651048171  1.0000
  Li  Li4       1.0  0.9818831531464589  0.7314935123199469  0.49538502565614806  1.0000
  O   O1        1.0  0.7664746256189687  0.6093828301946687  0.7487897999445439  1.0000
  O   O2        1.0  0.4158137904906276  0.2116203196655846  0.4245235433675276  1.0000
  O   O3        1.0  0.4072018176599599  0.7906732073128984  0.38759957909903164  1.0000
  O   O4        1.0  0.27659753923082775  0.21828615357056513  0.027993048235327223  1.0000
