data_image0
_chemical_formula_structural       Li4O4
_chemical_formula_sum              "Li4 O4"
_cell_length_a       3.10263483
_cell_length_b       3.1026338289526874
_cell_length_c       7.56992946
_cell_angle_alpha    90.0
_cell_angle_beta     90.0
_cell_angle_gamma    119.99998945596172

_space_group_name_H-M_alt    "P 1"
_space_group_IT_number       1

loop_
  _space_group_symop_operation_xyz
  'x, y, z'

loop_
  _atom_site_type_symbol
  _atom_site_label
  _atom_site_symmetry_multiplicity
  _atom_site_fract_x
  _atom_site_fract_y
  _atom_site_fract_z
  _atom_site_occupancy
  Li  Li1       1.0  0.25646078538012773  0.2946775249497904  0.1179765024779229  1.0000
  Li  Li2       1.0  0.15002564475288693  0.8072212657355067  0.10126131771335878  1.0000
  Li  Li3       1.0  0.7969490578155813  0.06425693217022399  0.4226361360285633  1.0000
  Li  Li4       1.0  0.6141894863015267  0.7052307521656118  0.033288759032387816  1.0000
  O   O1        1.0  0.2115631404856515  0.13446000469617303  0.09198873034472399  1.0000
  O   O2        1.0  0.699110931442334  0.1240859578947422  0.24682356355475932  1.0000
  O   O3        1.0  0.7231884552357428  0.10170641442886108  0.28404643699801824  1.0000
  O   O4        1.0  0.8250589902228072  0.3513582338989387  0.12621901202423125  1.0000
