data_image0
_chemical_formula_structural       Li4O4
_chemical_formula_sum              "Li4 O4"
_cell_length_a       3.10263483
_cell_length_b       3.1026338289526874
_cell_length_c       7.56992946
_cell_angle_alpha    90.0
_cell_angle_beta     90.0
_cell_angle_gamma    119.99998945596172

_space_group_name_H-M_alt    "P 1"
_space_group_IT_number       1

loop_
  _space_group_symop_operation_xyz
  'x, y, z'

loop_
  _atom_site_type_symbol
  _atom_site_label
  _atom_site_symmetry_multiplicity
  _atom_site_fract_x
  _atom_site_fract_y
  _atom_site_fract_z
  _atom_site_occupancy
  Li  Li1       1.0  0.8455240577627237  0.3204712709684602  0.6160146824416657  1.0000
  Li  Li2       1.0  0.09639455780323658  0.010832673230737555  0.16613541665443066  1.0000
  Li  Li3       1.0  0.8022432352563982  0.06767029442075057  0.24628932380156954  1.0000
  Li  Li4       1.0  0.48536077878618045  0.31438521328620617  0.9764118416049143  1.0000
  O   O1        1.0  0.3493060750933239  0.9788801775341736  0.5446873710902373  1.0000
  O   O2        1.0  0.1724601868290634  0.39676277721487097  0.43783165471354835  1.0000
  O   O3        1.0  0.5890619063256821  0.06863323905216845  0.609391005391771  1.0000
  O   O4        1.0  0.7055560622646553  0.022090608699783743  0.2990968797009135  1.0000
