data_image0
_chemical_formula_structural       Li4O4
_chemical_formula_sum              "Li4 O4"
_cell_length_a       3.10263483
_cell_length_b       3.1026338289526874
_cell_length_c       7.56992946
_cell_angle_alpha    90.0
_cell_angle_beta     90.0
_cell_angle_gamma    119.99998945596172

_space_group_name_H-M_alt    "P 1"
_space_group_IT_number       1

loop_
  _space_group_symop_operation_xyz
  'x, y, z'

loop_
  _atom_site_type_symbol
  _atom_site_label
  _atom_site_symmetry_multiplicity
  _atom_site_fract_x
  _atom_site_fract_y
  _atom_site_fract_z
  _atom_site_occupancy
  Li  Li1       1.0  0.6594309536699683  0.38488522802323644  0.8693869514136452  1.0000
  Li  Li2       1.0  0.07937840113959282  0.6162089941459339  0.8575141212591095  1.0000
  Li  Li3       1.0  0.7359742471940649  0.03561637761440295  0.27471097079641105  1.0000
  Li  Li4       1.0  0.9204899455150795  0.3137805860529923  0.6075972426977133  1.0000
  O   O1        1.0  0.9350802883511768  0.3311464303447629  0.14046093147786465  1.0000
  O   O2        1.0  0.9759713102056651  0.8145909971782359  0.7479170216202462  1.0000
  O   O3        1.0  0.28358545073266583  0.24480953263786276  0.16177176589453168  1.0000
  O   O4        1.0  0.30330329207719586  0.9646143379294561  0.49396148354399827  1.0000
