data_image0
_chemical_formula_structural       Li4O4
_chemical_formula_sum              "Li4 O4"
_cell_length_a       3.10263483
_cell_length_b       3.1026338289526874
_cell_length_c       7.56992946
_cell_angle_alpha    90.0
_cell_angle_beta     90.0
_cell_angle_gamma    119.99998945596172

_space_group_name_H-M_alt    "P 1"
_space_group_IT_number       1

loop_
  _space_group_symop_operation_xyz
  'x, y, z'

loop_
  _atom_site_type_symbol
  _atom_site_label
  _atom_site_symmetry_multiplicity
  _atom_site_fract_x
  _atom_site_fract_y
  _atom_site_fract_z
  _atom_site_occupancy
  Li  Li1       1.0  0.0683803767444715  0.07850165704591161  0.8919360952450575  1.0000
  Li  Li2       1.0  0.3908881412249485  0.0864100236252483  0.41084206862749895  1.0000
  Li  Li3       1.0  0.23016860272143447  0.11513388126061841  0.927009021264162  1.0000
  Li  Li4       1.0  0.6133419887868854  0.8760535058969996  0.6606813396523856  1.0000
  O   O1        1.0  0.39101462216639504  0.904916775919565  0.22864830288864013  1.0000
  O   O2        1.0  0.008249158794512823  0.248236698439527  0.7172068598726824  1.0000
  O   O3        1.0  0.7782287566450847  0.43151991482002217  0.10666031302010559  1.0000
  O   O4        1.0  0.534087311605667  0.13936672546653828  0.7354058619043915  1.0000
