data_image0
_chemical_formula_structural       Li4O4
_chemical_formula_sum              "Li4 O4"
_cell_length_a       3.10263483
_cell_length_b       3.1026338289526874
_cell_length_c       7.56992946
_cell_angle_alpha    90.0
_cell_angle_beta     90.0
_cell_angle_gamma    119.99998945596172

_space_group_name_H-M_alt    "P 1"
_space_group_IT_number       1

loop_
  _space_group_symop_operation_xyz
  'x, y, z'

loop_
  _atom_site_type_symbol
  _atom_site_label
  _atom_site_symmetry_multiplicity
  _atom_site_fract_x
  _atom_site_fract_y
  _atom_site_fract_z
  _atom_site_occupancy
  Li  Li1       1.0  0.27003286372536195  0.3998941882473126  0.9123667683002594  1.0000
  Li  Li2       1.0  0.2714969281002102  0.9164585890668651  0.105245480709935  1.0000
  Li  Li3       1.0  0.3370051184988867  0.32540916772224193  0.32724400094067363  1.0000
  Li  Li4       1.0  0.423057375446815  0.12302524460689312  0.2024852754001487  1.0000
  O   O1        1.0  0.11261216342384017  0.7368387525056619  0.6373897963718216  1.0000
  O   O2        1.0  0.18139590789555182  0.5652221091396861  0.9713834452000771  1.0000
  O   O3        1.0  0.07357469688067386  0.8057276971577898  0.10664519167798225  1.0000
  O   O4        1.0  0.37046424860922045  0.18971760111596936  0.6975449524756305  1.0000
