data_image0
_chemical_formula_structural       Li4O4
_chemical_formula_sum              "Li4 O4"
_cell_length_a       3.10263483
_cell_length_b       3.1026338289526874
_cell_length_c       7.56992946
_cell_angle_alpha    90.0
_cell_angle_beta     90.0
_cell_angle_gamma    119.99998945596172

_space_group_name_H-M_alt    "P 1"
_space_group_IT_number       1

loop_
  _space_group_symop_operation_xyz
  'x, y, z'

loop_
  _atom_site_type_symbol
  _atom_site_label
  _atom_site_symmetry_multiplicity
  _atom_site_fract_x
  _atom_site_fract_y
  _atom_site_fract_z
  _atom_site_occupancy
  Li  Li1       1.0  0.12212204687811123  0.14570716385556182  0.7892567672700359  1.0000
  Li  Li2       1.0  0.16907368105057685  0.4043803262998864  0.18950852429320264  1.0000
  Li  Li3       1.0  0.08490087854900707  0.3758497247460184  0.2754109496414756  1.0000
  Li  Li4       1.0  0.3246263279948778  0.9000518203841921  0.7191646958695834  1.0000
  O   O1        1.0  0.29880275958039704  0.0343393507814298  0.8123043513878834  1.0000
  O   O2        1.0  0.2740053426669675  0.9292716762349045  0.5517689973953281  1.0000
  O   O3        1.0  0.7157542752661854  0.08587373072090543  0.20400351886274848  1.0000
  O   O4        1.0  0.35036985716054847  0.7420462368073899  0.8772946115481091  1.0000
