data_image0
_chemical_formula_structural       Li4O4
_chemical_formula_sum              "Li4 O4"
_cell_length_a       3.10263483
_cell_length_b       3.1026338289526874
_cell_length_c       7.56992946
_cell_angle_alpha    90.0
_cell_angle_beta     90.0
_cell_angle_gamma    119.99998945596172

_space_group_name_H-M_alt    "P 1"
_space_group_IT_number       1

loop_
  _space_group_symop_operation_xyz
  'x, y, z'

loop_
  _atom_site_type_symbol
  _atom_site_label
  _atom_site_symmetry_multiplicity
  _atom_site_fract_x
  _atom_site_fract_y
  _atom_site_fract_z
  _atom_site_occupancy
  Li  Li1       1.0  0.07386471724039723  0.5050963661867627  0.2482127027986678  1.0000
  Li  Li2       1.0  0.9697193657404881  0.2634950327122567  0.9103063099689788  1.0000
  Li  Li3       1.0  0.7859933474464356  0.9247221317712331  0.08547142324489698  1.0000
  Li  Li4       1.0  0.40668233941475407  0.2681943319439881  0.053916149797416324  1.0000
  O   O1        1.0  0.2108617133694537  0.14187243517567083  0.6791372127117405  1.0000
  O   O2        1.0  0.10120427275818145  0.09437688320556958  0.7725058246980865  1.0000
  O   O3        1.0  0.09798204804674526  0.4836343729926469  0.22813942773517226  1.0000
  O   O4        1.0  0.023019745558949367  0.5136264704431852  0.8104089353988897  1.0000
