data_image0
_chemical_formula_structural       Li4O4
_chemical_formula_sum              "Li4 O4"
_cell_length_a       3.10263483
_cell_length_b       3.1026338289526874
_cell_length_c       7.56992946
_cell_angle_alpha    90.0
_cell_angle_beta     90.0
_cell_angle_gamma    119.99998945596172

_space_group_name_H-M_alt    "P 1"
_space_group_IT_number       1

loop_
  _space_group_symop_operation_xyz
  'x, y, z'

loop_
  _atom_site_type_symbol
  _atom_site_label
  _atom_site_symmetry_multiplicity
  _atom_site_fract_x
  _atom_site_fract_y
  _atom_site_fract_z
  _atom_site_occupancy
  Li  Li1       1.0  0.7072355857769068  0.16581822469892415  0.1997586545613288  1.0000
  Li  Li2       1.0  0.1368971182507721  0.20892039640805193  0.8353563824423844  1.0000
  Li  Li3       1.0  0.3596988334197295  0.26565077833229367  0.6417257307522632  1.0000
  Li  Li4       1.0  0.6264501933152653  0.6962767233633578  0.7694805280640233  1.0000
  O   O1        1.0  0.2727113961854286  0.12225036392919364  0.8858753892605078  1.0000
  O   O2        1.0  0.26081174920303596  0.9904414560098189  0.17003392975940024  1.0000
  O   O3        1.0  0.6880436661136926  0.9844904329604685  0.6008795582747766  1.0000
  O   O4        1.0  0.055219915233308825  0.3984029922926006  0.2178796873084563  1.0000
