data_image0
_chemical_formula_structural       Li4O4
_chemical_formula_sum              "Li4 O4"
_cell_length_a       3.10263483
_cell_length_b       3.1026338289526874
_cell_length_c       7.56992946
_cell_angle_alpha    90.0
_cell_angle_beta     90.0
_cell_angle_gamma    119.99998945596172

_space_group_name_H-M_alt    "P 1"
_space_group_IT_number       1

loop_
  _space_group_symop_operation_xyz
  'x, y, z'

loop_
  _atom_site_type_symbol
  _atom_site_label
  _atom_site_symmetry_multiplicity
  _atom_site_fract_x
  _atom_site_fract_y
  _atom_site_fract_z
  _atom_site_occupancy
  Li  Li1       1.0  0.3590029922827327  0.9135357655314351  0.30206781888688283  1.0000
  Li  Li2       1.0  0.31088037678691194  0.07437100234928806  0.8389328742684183  1.0000
  Li  Li3       1.0  0.9428872465440534  0.4514247131971558  0.2547039185636817  1.0000
  Li  Li4       1.0  0.6447579331357431  0.4017988513518773  0.21127251979250516  1.0000
  O   O1        1.0  0.26830741302955374  0.5384898228772812  0.10590194355907556  1.0000
  O   O2        1.0  0.8043088717555236  0.032192039506099945  0.05400106251846992  1.0000
  O   O3        1.0  0.5994513834904325  0.2627140573886493  0.3358447402221998  1.0000
  O   O4        1.0  0.2647455518633386  0.40564153610388676  0.9223002947878864  1.0000
