data_image0
_chemical_formula_structural       Li4O4
_chemical_formula_sum              "Li4 O4"
_cell_length_a       3.10263483
_cell_length_b       3.1026338289526874
_cell_length_c       7.56992946
_cell_angle_alpha    90.0
_cell_angle_beta     90.0
_cell_angle_gamma    119.99998945596172

_space_group_name_H-M_alt    "P 1"
_space_group_IT_number       1

loop_
  _space_group_symop_operation_xyz
  'x, y, z'

loop_
  _atom_site_type_symbol
  _atom_site_label
  _atom_site_symmetry_multiplicity
  _atom_site_fract_x
  _atom_site_fract_y
  _atom_site_fract_z
  _atom_site_occupancy
  Li  Li1       1.0  0.717585897510669  0.4241331493200633  0.22678124914056497  1.0000
  Li  Li2       1.0  0.8457525222462436  0.47527455268020447  0.2672485478467834  1.0000
  Li  Li3       1.0  0.32773983937796913  0.09757705177534604  0.691622291830619  1.0000
  Li  Li4       1.0  0.43188930009758053  0.08026257188871229  0.7723776887398839  1.0000
  O   O1        1.0  0.8532316802139803  0.3686707541613303  0.735899159718997  1.0000
  O   O2        1.0  0.6818040638273288  0.46296712217060687  0.8260773956293619  1.0000
  O   O3        1.0  0.15184668068106788  0.20808679373860173  0.00837592703061718  1.0000
  O   O4        1.0  0.6743861527085571  0.77660896365445  0.7314029684558028  1.0000
