data_image0
_chemical_formula_structural       Li4O4
_chemical_formula_sum              "Li4 O4"
_cell_length_a       3.10263483
_cell_length_b       3.1026338289526874
_cell_length_c       7.56992946
_cell_angle_alpha    90.0
_cell_angle_beta     90.0
_cell_angle_gamma    119.99998945596172

_space_group_name_H-M_alt    "P 1"
_space_group_IT_number       1

loop_
  _space_group_symop_operation_xyz
  'x, y, z'

loop_
  _atom_site_type_symbol
  _atom_site_label
  _atom_site_symmetry_multiplicity
  _atom_site_fract_x
  _atom_site_fract_y
  _atom_site_fract_z
  _atom_site_occupancy
  Li  Li1       1.0  0.3804252008611684  0.5747857270072956  0.7553167393352496  1.0000
  Li  Li2       1.0  0.27360750807824274  0.1162354979779252  0.038217019154639154  1.0000
  Li  Li3       1.0  0.07765431572650527  0.13616419327240692  0.7214371085132498  1.0000
  Li  Li4       1.0  0.1615306637670244  0.16731461855598084  0.7584256556027711  1.0000
  O   O1        1.0  0.018012974818134353  0.43215275703303035  0.7661201941554125  1.0000
  O   O2        1.0  0.15507500039700517  0.4721435072480702  0.781129243069671  1.0000
  O   O3        1.0  0.10892371851801386  0.975053872661718  0.307089141531522  1.0000
  O   O4        1.0  0.3397050819890488  0.7474274414785711  0.3913207731923811  1.0000
