data_image0
_chemical_formula_structural       Li4O4
_chemical_formula_sum              "Li4 O4"
_cell_length_a       3.10263483
_cell_length_b       3.1026338289526874
_cell_length_c       7.56992946
_cell_angle_alpha    90.0
_cell_angle_beta     90.0
_cell_angle_gamma    119.99998945596172

_space_group_name_H-M_alt    "P 1"
_space_group_IT_number       1

loop_
  _space_group_symop_operation_xyz
  'x, y, z'

loop_
  _atom_site_type_symbol
  _atom_site_label
  _atom_site_symmetry_multiplicity
  _atom_site_fract_x
  _atom_site_fract_y
  _atom_site_fract_z
  _atom_site_occupancy
  Li  Li1       1.0  0.05535574429599066  0.8739435284523793  0.0827174777430244  1.0000
  Li  Li2       1.0  0.9117856340506307  0.46614205873120795  0.5342993229387076  1.0000
  Li  Li3       1.0  0.9348373799583101  0.8788415514757233  0.37970570664853653  1.0000
  Li  Li4       1.0  0.28079679919400746  0.878335101221424  0.19066184204095293  1.0000
  O   O1        1.0  0.023146256801560128  0.8128295212374823  0.03374732723002438  1.0000
  O   O2        1.0  0.7763772537584259  0.054324671622033804  0.28529037064724605  1.0000
  O   O3        1.0  0.35794847683499853  0.20064951375451656  0.6036408505890876  1.0000
  O   O4        1.0  0.9760700435220311  0.21771955818493893  0.24648394638965243  1.0000
