data_image0
_chemical_formula_structural       Li4O4
_chemical_formula_sum              "Li4 O4"
_cell_length_a       3.10263483
_cell_length_b       3.1026338289526874
_cell_length_c       7.56992946
_cell_angle_alpha    90.0
_cell_angle_beta     90.0
_cell_angle_gamma    119.99998945596172

_space_group_name_H-M_alt    "P 1"
_space_group_IT_number       1

loop_
  _space_group_symop_operation_xyz
  'x, y, z'

loop_
  _atom_site_type_symbol
  _atom_site_label
  _atom_site_symmetry_multiplicity
  _atom_site_fract_x
  _atom_site_fract_y
  _atom_site_fract_z
  _atom_site_occupancy
  Li  Li1       1.0  0.5092110636332698  0.9486683926322144  0.6689555871396955  1.0000
  Li  Li2       1.0  0.11253016347129119  0.4819049801921267  0.9523480209420043  1.0000
  Li  Li3       1.0  0.955442817453303  0.767696511971593  0.8636219355468384  1.0000
  Li  Li4       1.0  0.3333926253929178  0.9298672248726518  0.520311584055559  1.0000
  O   O1        1.0  0.11478520522892666  0.7836823928803653  0.33464725628759595  1.0000
  O   O2        1.0  0.6670219121406689  0.5549993775844513  0.37488841799547856  1.0000
  O   O3        1.0  0.4794956774743575  0.5986207342542258  0.2414095726127954  1.0000
  O   O4        1.0  0.0664131128672425  0.24797815134853352  0.03196090017491571  1.0000
