data_image0
_chemical_formula_structural       Li4O4
_chemical_formula_sum              "Li4 O4"
_cell_length_a       3.10263483
_cell_length_b       3.1026338289526874
_cell_length_c       7.56992946
_cell_angle_alpha    90.0
_cell_angle_beta     90.0
_cell_angle_gamma    119.99998945596172

_space_group_name_H-M_alt    "P 1"
_space_group_IT_number       1

loop_
  _space_group_symop_operation_xyz
  'x, y, z'

loop_
  _atom_site_type_symbol
  _atom_site_label
  _atom_site_symmetry_multiplicity
  _atom_site_fract_x
  _atom_site_fract_y
  _atom_site_fract_z
  _atom_site_occupancy
  Li  Li1       1.0  0.8051441731605138  0.003526150544708173  0.6481589317581431  1.0000
  Li  Li2       1.0  0.28059295002945106  0.1806365204671776  0.8352570622686777  1.0000
  Li  Li3       1.0  0.14770337158063995  0.455850218766912  0.7784227355407278  1.0000
  Li  Li4       1.0  0.37207033941296963  0.1152524979163374  0.45913121358395337  1.0000
  O   O1        1.0  0.7743697385633723  0.1521331384277218  0.6746644528800285  1.0000
  O   O2        1.0  0.16137903215435756  0.3304576062815521  0.39366505599015156  1.0000
  O   O3        1.0  0.499963209237837  0.12435053073472524  0.36318619521387063  1.0000
  O   O4        1.0  0.5693968085694578  0.6099422455223418  0.9751911799616977  1.0000
