data_image0
_chemical_formula_structural       Li4O4
_chemical_formula_sum              "Li4 O4"
_cell_length_a       3.10263483
_cell_length_b       3.1026338289526874
_cell_length_c       7.56992946
_cell_angle_alpha    90.0
_cell_angle_beta     90.0
_cell_angle_gamma    119.99998945596172

_space_group_name_H-M_alt    "P 1"
_space_group_IT_number       1

loop_
  _space_group_symop_operation_xyz
  'x, y, z'

loop_
  _atom_site_type_symbol
  _atom_site_label
  _atom_site_symmetry_multiplicity
  _atom_site_fract_x
  _atom_site_fract_y
  _atom_site_fract_z
  _atom_site_occupancy
  Li  Li1       1.0  0.6050013613389424  0.41834728747280536  0.191063886839963  1.0000
  Li  Li2       1.0  0.16116273923123003  0.9615762151990452  0.503129209816656  1.0000
  Li  Li3       1.0  0.3719418489802422  0.6091675648742765  0.01189947514204448  1.0000
  Li  Li4       1.0  0.8473111390078998  0.3996280321873229  0.9251614815383284  1.0000
  O   O1        1.0  0.6438679336639694  0.881668552195352  0.05843547717039854  1.0000
  O   O2        1.0  0.4697169567975834  0.7602763504165893  0.21974502548273023  1.0000
  O   O3        1.0  0.6043859540589871  0.43622744838666705  0.29261568665640425  1.0000
  O   O4        1.0  0.4525059225811603  0.36458345096555433  0.9922659247047285  1.0000
