data_image0
_chemical_formula_structural       Li4O4
_chemical_formula_sum              "Li4 O4"
_cell_length_a       3.10263483
_cell_length_b       3.1026338289526874
_cell_length_c       7.56992946
_cell_angle_alpha    90.0
_cell_angle_beta     90.0
_cell_angle_gamma    119.99998945596172

_space_group_name_H-M_alt    "P 1"
_space_group_IT_number       1

loop_
  _space_group_symop_operation_xyz
  'x, y, z'

loop_
  _atom_site_type_symbol
  _atom_site_label
  _atom_site_symmetry_multiplicity
  _atom_site_fract_x
  _atom_site_fract_y
  _atom_site_fract_z
  _atom_site_occupancy
  Li  Li1       1.0  0.7098107436196557  0.1611157803763632  0.6555886782692681  1.0000
  Li  Li2       1.0  0.14204561415672856  0.1551567010532644  0.7953549006331535  1.0000
  Li  Li3       1.0  0.21623684661835796  0.9338190304883796  0.15706287230912963  1.0000
  Li  Li4       1.0  0.9019471723237942  0.8889796900729152  0.8792472867661578  1.0000
  O   O1        1.0  0.32202437197412337  0.9499200161670405  0.4924860814151675  1.0000
  O   O2        1.0  0.40661819941324495  0.6313032098816578  0.21528759953459442  1.0000
  O   O3        1.0  0.1538999783513617  0.4948204132957308  0.5183259964643163  1.0000
  O   O4        1.0  0.6904045524978031  0.803572594112099  0.10024190686743184  1.0000
