data_image0
_chemical_formula_structural       Li4O4
_chemical_formula_sum              "Li4 O4"
_cell_length_a       3.10263483
_cell_length_b       3.1026338289526874
_cell_length_c       7.56992946
_cell_angle_alpha    90.0
_cell_angle_beta     90.0
_cell_angle_gamma    119.99998945596172

_space_group_name_H-M_alt    "P 1"
_space_group_IT_number       1

loop_
  _space_group_symop_operation_xyz
  'x, y, z'

loop_
  _atom_site_type_symbol
  _atom_site_label
  _atom_site_symmetry_multiplicity
  _atom_site_fract_x
  _atom_site_fract_y
  _atom_site_fract_z
  _atom_site_occupancy
  Li  Li1       1.0  0.47753343985901875  0.1906674913056179  0.09398290457928837  1.0000
  Li  Li2       1.0  0.8591592258017613  0.426394048495383  0.9089715302184929  1.0000
  Li  Li3       1.0  0.019399407337495234  0.16286866540682077  0.8419653461060683  1.0000
  Li  Li4       1.0  0.2874965116002173  0.46300710941278034  0.8657677523587424  1.0000
  O   O1        1.0  0.25111143234486377  0.21051061408089566  0.8227619541948039  1.0000
  O   O2        1.0  0.3523931265955724  0.8531136095377789  0.9275520693658077  1.0000
  O   O3        1.0  0.12333751665176607  0.05236205415151396  0.08212879979624965  1.0000
  O   O4        1.0  0.5700422624788217  0.23078079697959453  0.3085402096388279  1.0000
