data_image0
_chemical_formula_structural       Li4O4
_chemical_formula_sum              "Li4 O4"
_cell_length_a       3.10263483
_cell_length_b       3.1026338289526874
_cell_length_c       7.56992946
_cell_angle_alpha    90.0
_cell_angle_beta     90.0
_cell_angle_gamma    119.99998945596172

_space_group_name_H-M_alt    "P 1"
_space_group_IT_number       1

loop_
  _space_group_symop_operation_xyz
  'x, y, z'

loop_
  _atom_site_type_symbol
  _atom_site_label
  _atom_site_symmetry_multiplicity
  _atom_site_fract_x
  _atom_site_fract_y
  _atom_site_fract_z
  _atom_site_occupancy
  Li  Li1       1.0  0.8455161107515821  0.777459770450136  0.14802490275405944  1.0000
  Li  Li2       1.0  0.3013863629130924  0.10457815246415691  0.9883768983344083  1.0000
  Li  Li3       1.0  0.4556436130580437  0.6584497202430413  0.22309880042325148  1.0000
  Li  Li4       1.0  0.3227155003376936  0.9178763581008127  0.7652980543829173  1.0000
  O   O1        1.0  0.012074413141036189  0.21873254390715857  0.652577361453833  1.0000
  O   O2        1.0  0.42380064171865683  0.9282388697550346  0.8949907912936226  1.0000
  O   O3        1.0  0.09401420441283648  0.8785218381674795  0.5853614931614644  1.0000
  O   O4        1.0  0.52274899763405  0.3952516936057151  0.3981847837870873  1.0000
