data_image0
_chemical_formula_structural       Li4O4
_chemical_formula_sum              "Li4 O4"
_cell_length_a       3.10263483
_cell_length_b       3.1026338289526874
_cell_length_c       7.56992946
_cell_angle_alpha    90.0
_cell_angle_beta     90.0
_cell_angle_gamma    119.99998945596172

_space_group_name_H-M_alt    "P 1"
_space_group_IT_number       1

loop_
  _space_group_symop_operation_xyz
  'x, y, z'

loop_
  _atom_site_type_symbol
  _atom_site_label
  _atom_site_symmetry_multiplicity
  _atom_site_fract_x
  _atom_site_fract_y
  _atom_site_fract_z
  _atom_site_occupancy
  Li  Li1       1.0  0.9404057463734787  0.9942419904513855  0.4619125322801807  1.0000
  Li  Li2       1.0  0.5995699234339043  0.62492776592984  0.7582771041979228  1.0000
  Li  Li3       1.0  0.24843438940520457  0.9912311243120371  0.18801123068483605  1.0000
  Li  Li4       1.0  0.5130943971120985  0.7405917269222755  0.09559355141273684  1.0000
  O   O1        1.0  0.18217690864707947  0.27178904946720195  0.4734394896187837  1.0000
  O   O2        1.0  0.9602802845366654  0.7517905996397332  0.9481339923582723  1.0000
  O   O3        1.0  0.7365429495265392  0.7244872700361249  0.8295938322796204  1.0000
  O   O4        1.0  0.9080767137375698  0.8786452065877626  0.6836441220909819  1.0000
