data_image0
_chemical_formula_structural       Li4O4
_chemical_formula_sum              "Li4 O4"
_cell_length_a       3.10263483
_cell_length_b       3.1026338289526874
_cell_length_c       7.56992946
_cell_angle_alpha    90.0
_cell_angle_beta     90.0
_cell_angle_gamma    119.99998945596172

_space_group_name_H-M_alt    "P 1"
_space_group_IT_number       1

loop_
  _space_group_symop_operation_xyz
  'x, y, z'

loop_
  _atom_site_type_symbol
  _atom_site_label
  _atom_site_symmetry_multiplicity
  _atom_site_fract_x
  _atom_site_fract_y
  _atom_site_fract_z
  _atom_site_occupancy
  Li  Li1       1.0  0.5050915673231771  0.5534742147965233  0.5846160466369952  1.0000
  Li  Li2       1.0  0.5333811215653554  0.17273212971551466  0.10089833078885446  1.0000
  Li  Li3       1.0  0.4493360329315337  0.8582255441516935  0.3993671919893451  1.0000
  Li  Li4       1.0  0.8731107831924234  0.4560445835775955  0.34873830161319663  1.0000
  O   O1        1.0  0.8896654326596831  0.6945275232173955  0.9312328716019369  1.0000
  O   O2        1.0  0.7603293703815837  0.8858244178074877  0.2341024331402224  1.0000
  O   O3        1.0  0.2574936361281033  0.9973825516996229  0.7860510170527242  1.0000
  O   O4        1.0  0.38304341411026144  0.18648106325840175  0.7330186431452521  1.0000
