data_image0
_chemical_formula_structural       Li4O4
_chemical_formula_sum              "Li4 O4"
_cell_length_a       3.10263483
_cell_length_b       3.1026338289526874
_cell_length_c       7.56992946
_cell_angle_alpha    90.0
_cell_angle_beta     90.0
_cell_angle_gamma    119.99998945596172

_space_group_name_H-M_alt    "P 1"
_space_group_IT_number       1

loop_
  _space_group_symop_operation_xyz
  'x, y, z'

loop_
  _atom_site_type_symbol
  _atom_site_label
  _atom_site_symmetry_multiplicity
  _atom_site_fract_x
  _atom_site_fract_y
  _atom_site_fract_z
  _atom_site_occupancy
  Li  Li1       1.0  0.9166743142650802  0.4061821394447378  0.9835870831800868  1.0000
  Li  Li2       1.0  0.7908875376867854  0.6744364300992913  0.627812720104032  1.0000
  Li  Li3       1.0  0.14111437260848447  0.4640305391315067  0.10326156334195602  1.0000
  Li  Li4       1.0  0.24455093024107555  0.795453688156698  0.9413829930751305  1.0000
  O   O1        1.0  0.8951533665856282  0.5239099010251635  0.09759372772348485  1.0000
  O   O2        1.0  0.08500743327353177  0.4174389872585351  0.747519223185968  1.0000
  O   O3        1.0  0.05928375719818746  0.4071924610888864  0.20324291780720927  1.0000
  O   O4        1.0  0.23601155470429802  0.7213568355576143  0.316219514561908  1.0000
