data_image0
_chemical_formula_structural       Li4O4
_chemical_formula_sum              "Li4 O4"
_cell_length_a       3.10263483
_cell_length_b       3.1026338289526874
_cell_length_c       7.56992946
_cell_angle_alpha    90.0
_cell_angle_beta     90.0
_cell_angle_gamma    119.99998945596172

_space_group_name_H-M_alt    "P 1"
_space_group_IT_number       1

loop_
  _space_group_symop_operation_xyz
  'x, y, z'

loop_
  _atom_site_type_symbol
  _atom_site_label
  _atom_site_symmetry_multiplicity
  _atom_site_fract_x
  _atom_site_fract_y
  _atom_site_fract_z
  _atom_site_occupancy
  Li  Li1       1.0  0.14304727775628123  0.6698291587886587  0.1054646668805006  1.0000
  Li  Li2       1.0  0.7817866546344447  0.9740224952962464  0.6280993026321653  1.0000
  Li  Li3       1.0  0.6922096438835439  0.749261265798637  0.904876123043497  1.0000
  Li  Li4       1.0  0.9859089948613331  0.7893312223561599  0.49607088301580937  1.0000
  O   O1        1.0  0.3429208811217812  0.8111686367965696  0.9576175138473744  1.0000
  O   O2        1.0  0.5790623573754203  0.5390758845256975  0.14331516274732437  1.0000
  O   O3        1.0  0.8508709772266698  0.8564981432603531  0.6602364969143486  1.0000
  O   O4        1.0  0.4059394013748516  0.004167051000152355  0.7772827963954247  1.0000
