data_image0
_chemical_formula_structural       Li4O4
_chemical_formula_sum              "Li4 O4"
_cell_length_a       3.10263483
_cell_length_b       3.1026338289526874
_cell_length_c       7.56992946
_cell_angle_alpha    90.0
_cell_angle_beta     90.0
_cell_angle_gamma    119.99998945596172

_space_group_name_H-M_alt    "P 1"
_space_group_IT_number       1

loop_
  _space_group_symop_operation_xyz
  'x, y, z'

loop_
  _atom_site_type_symbol
  _atom_site_label
  _atom_site_symmetry_multiplicity
  _atom_site_fract_x
  _atom_site_fract_y
  _atom_site_fract_z
  _atom_site_occupancy
  Li  Li1       1.0  0.28876059425027734  0.4766329304103607  0.004537085186257173  1.0000
  Li  Li2       1.0  0.01263229975319291  0.260848113260419  0.22193892317166153  1.0000
  Li  Li3       1.0  0.5896343231783447  0.07199900603444576  0.239421122529067  1.0000
  Li  Li4       1.0  0.27399417973048656  0.44980117987075374  0.9918491604380364  1.0000
  O   O1        1.0  0.9531069343009761  0.14692573487206317  0.36518197199603186  1.0000
  O   O2        1.0  0.6462294545158471  0.5455326647263448  0.4681637194426962  1.0000
  O   O3        1.0  0.025690149071309065  0.10214588397728974  0.3015340293782742  1.0000
  O   O4        1.0  0.4957969428662352  0.9792640811725986  0.8170758855635256  1.0000
