data_image0
_chemical_formula_structural       Li4O4
_chemical_formula_sum              "Li4 O4"
_cell_length_a       3.10263483
_cell_length_b       3.1026338289526874
_cell_length_c       7.56992946
_cell_angle_alpha    90.0
_cell_angle_beta     90.0
_cell_angle_gamma    119.99998945596172

_space_group_name_H-M_alt    "P 1"
_space_group_IT_number       1

loop_
  _space_group_symop_operation_xyz
  'x, y, z'

loop_
  _atom_site_type_symbol
  _atom_site_label
  _atom_site_symmetry_multiplicity
  _atom_site_fract_x
  _atom_site_fract_y
  _atom_site_fract_z
  _atom_site_occupancy
  Li  Li1       1.0  0.42294544118257704  0.5688707305653367  0.3174130374571966  1.0000
  Li  Li2       1.0  0.45127376986371814  0.3273855324991928  0.6327505672477685  1.0000
  Li  Li3       1.0  0.9655590947480022  0.03728457580074007  0.8110062502802293  1.0000
  Li  Li4       1.0  0.4422693890697076  0.8140928009891013  0.685554637280049  1.0000
  O   O1        1.0  0.3257391198076647  0.4518298679195851  0.6612291503890155  1.0000
  O   O2        1.0  0.34195216597915135  0.9371350375831753  0.3859611236145426  1.0000
  O   O3        1.0  0.6756520391606884  0.632359209924747  0.4088308900933484  1.0000
  O   O4        1.0  0.9548248962438528  0.5191304828487233  0.6424233902678651  1.0000
