data_image0
_chemical_formula_structural       Li4O4
_chemical_formula_sum              "Li4 O4"
_cell_length_a       3.10263483
_cell_length_b       3.1026338289526874
_cell_length_c       7.56992946
_cell_angle_alpha    90.0
_cell_angle_beta     90.0
_cell_angle_gamma    119.99998945596172

_space_group_name_H-M_alt    "P 1"
_space_group_IT_number       1

loop_
  _space_group_symop_operation_xyz
  'x, y, z'

loop_
  _atom_site_type_symbol
  _atom_site_label
  _atom_site_symmetry_multiplicity
  _atom_site_fract_x
  _atom_site_fract_y
  _atom_site_fract_z
  _atom_site_occupancy
  Li  Li1       1.0  0.48067607200074747  0.8771684875156609  0.3708272688213867  1.0000
  Li  Li2       1.0  0.68870129947598  0.988493979253505  0.6958240933760038  1.0000
  Li  Li3       1.0  0.30289206213873854  0.44345246832821195  0.8159377481979391  1.0000
  Li  Li4       1.0  0.5424299095774643  0.43500716707342235  0.6164670902355311  1.0000
  O   O1        1.0  0.9326561096497983  0.20418067692216368  0.34855694488798505  1.0000
  O   O2        1.0  0.9892579149332335  0.015841807040132494  0.18141152220384527  1.0000
  O   O3        1.0  0.8513820076900629  0.30735777537061537  0.06523840423839644  1.0000
  O   O4        1.0  0.9469351864501263  0.7517796944211739  0.7874928117531184  1.0000
