data_image0
_chemical_formula_structural       Li4O4
_chemical_formula_sum              "Li4 O4"
_cell_length_a       3.10263483
_cell_length_b       3.1026338289526874
_cell_length_c       7.56992946
_cell_angle_alpha    90.0
_cell_angle_beta     90.0
_cell_angle_gamma    119.99998945596172

_space_group_name_H-M_alt    "P 1"
_space_group_IT_number       1

loop_
  _space_group_symop_operation_xyz
  'x, y, z'

loop_
  _atom_site_type_symbol
  _atom_site_label
  _atom_site_symmetry_multiplicity
  _atom_site_fract_x
  _atom_site_fract_y
  _atom_site_fract_z
  _atom_site_occupancy
  Li  Li1       1.0  0.5564668819244503  0.07743274639199171  0.5090919484568772  1.0000
  Li  Li2       1.0  0.11303845441540261  0.8905781759221973  0.5650761695990987  1.0000
  Li  Li3       1.0  0.9724664228852191  0.8257451127542055  0.33663863335340594  1.0000
  Li  Li4       1.0  0.8048358167437941  0.716529468047991  0.962024639300016  1.0000
  O   O1        1.0  0.5151808511593146  0.18255215055424046  0.47341742615353777  1.0000
  O   O2        1.0  0.6779118068552492  0.2055350908931146  0.25858026221993313  1.0000
  O   O3        1.0  0.08022322210359789  0.6936115393341495  0.6726052794318598  1.0000
  O   O4        1.0  0.7429084065077163  0.9277676530555543  0.6690083783631294  1.0000
