data_image0
_chemical_formula_structural       Li4O4
_chemical_formula_sum              "Li4 O4"
_cell_length_a       3.10263483
_cell_length_b       3.1026338289526874
_cell_length_c       7.56992946
_cell_angle_alpha    90.0
_cell_angle_beta     90.0
_cell_angle_gamma    119.99998945596172

_space_group_name_H-M_alt    "P 1"
_space_group_IT_number       1

loop_
  _space_group_symop_operation_xyz
  'x, y, z'

loop_
  _atom_site_type_symbol
  _atom_site_label
  _atom_site_symmetry_multiplicity
  _atom_site_fract_x
  _atom_site_fract_y
  _atom_site_fract_z
  _atom_site_occupancy
  Li  Li1       1.0  0.7133430588723968  0.6307666645848684  0.6974855430544054  1.0000
  Li  Li2       1.0  0.750237350433764  0.07471814062488136  0.7968569033591368  1.0000
  Li  Li3       1.0  0.1652979808553212  0.5290578490610756  0.5985360724570556  1.0000
  Li  Li4       1.0  0.7975377240980919  0.02871820960629634  0.10337138182131156  1.0000
  O   O1        1.0  0.5574157251807108  0.39763675390465636  0.2893121882391405  1.0000
  O   O2        1.0  0.22696816141146314  0.26961632847451966  0.8454388692462018  1.0000
  O   O3        1.0  0.21625947616404062  0.8182050436112576  0.13003842097355545  1.0000
  O   O4        1.0  0.03303864781431898  0.8755465741197419  0.8512439726888577  1.0000
