data_image0
_chemical_formula_structural       Li4O4
_chemical_formula_sum              "Li4 O4"
_cell_length_a       3.10263483
_cell_length_b       3.1026338289526874
_cell_length_c       7.56992946
_cell_angle_alpha    90.0
_cell_angle_beta     90.0
_cell_angle_gamma    119.99998945596172

_space_group_name_H-M_alt    "P 1"
_space_group_IT_number       1

loop_
  _space_group_symop_operation_xyz
  'x, y, z'

loop_
  _atom_site_type_symbol
  _atom_site_label
  _atom_site_symmetry_multiplicity
  _atom_site_fract_x
  _atom_site_fract_y
  _atom_site_fract_z
  _atom_site_occupancy
  Li  Li1       1.0  0.21810361718268467  0.3389022317109367  0.09234540465645935  1.0000
  Li  Li2       1.0  0.3927611304632279  0.21981312296761502  0.836277995896598  1.0000
  Li  Li3       1.0  0.020001963074889773  0.0428312621050253  0.6115157172095707  1.0000
  Li  Li4       1.0  0.008505779342478093  0.8160854624961407  0.5777863978487376  1.0000
  O   O1        1.0  0.4334538084630495  0.7168950987239366  0.6937330132698634  1.0000
  O   O2        1.0  0.4353758044862772  0.30523247924621444  0.9452486509735749  1.0000
  O   O3        1.0  0.1651330757469367  0.3910800965792056  0.12576231341510535  1.0000
  O   O4        1.0  0.8549829932603359  0.8721188215714939  0.9167020197322078  1.0000
