data_image0
_chemical_formula_structural       Li4O4
_chemical_formula_sum              "Li4 O4"
_cell_length_a       3.10263483
_cell_length_b       3.1026338289526874
_cell_length_c       7.56992946
_cell_angle_alpha    90.0
_cell_angle_beta     90.0
_cell_angle_gamma    119.99998945596172

_space_group_name_H-M_alt    "P 1"
_space_group_IT_number       1

loop_
  _space_group_symop_operation_xyz
  'x, y, z'

loop_
  _atom_site_type_symbol
  _atom_site_label
  _atom_site_symmetry_multiplicity
  _atom_site_fract_x
  _atom_site_fract_y
  _atom_site_fract_z
  _atom_site_occupancy
  Li  Li1       1.0  0.12271305106859387  0.5063042800400908  0.02241826247414025  1.0000
  Li  Li2       1.0  0.47357564091743143  0.08667042350668908  0.5189562285916693  1.0000
  Li  Li3       1.0  0.9804936346326514  0.3472691391496312  0.10237879021244112  1.0000
  Li  Li4       1.0  0.5526742721245981  0.47125784426351913  0.5493963811763223  1.0000
  O   O1        1.0  0.32614133252511834  0.09889036251955474  0.5832032923329749  1.0000
  O   O2        1.0  0.0003025694629315012  0.7833297759153055  0.554810002989278  1.0000
  O   O3        1.0  0.5588561639261265  0.43744279111331164  0.23260208320924036  1.0000
  O   O4        1.0  0.09536850674484665  0.4518972252863378  0.9238380020209309  1.0000
