data_image0
_chemical_formula_structural       Li4O4
_chemical_formula_sum              "Li4 O4"
_cell_length_a       3.10263483
_cell_length_b       3.1026338289526874
_cell_length_c       7.56992946
_cell_angle_alpha    90.0
_cell_angle_beta     90.0
_cell_angle_gamma    119.99998945596172

_space_group_name_H-M_alt    "P 1"
_space_group_IT_number       1

loop_
  _space_group_symop_operation_xyz
  'x, y, z'

loop_
  _atom_site_type_symbol
  _atom_site_label
  _atom_site_symmetry_multiplicity
  _atom_site_fract_x
  _atom_site_fract_y
  _atom_site_fract_z
  _atom_site_occupancy
  Li  Li1       1.0  0.3580960683017622  0.6537603809618844  0.22746885819211826  1.0000
  Li  Li2       1.0  0.9481942532300991  0.6971370241334327  0.8353262313796108  1.0000
  Li  Li3       1.0  0.8636261469784632  0.7070935138312322  0.15318355009620532  1.0000
  Li  Li4       1.0  0.48438694965535767  0.5709906748477422  0.3799297608380803  1.0000
  O   O1        1.0  0.8447559730552001  0.6820756044190652  0.5878868602318605  1.0000
  O   O2        1.0  0.48501025306934764  0.8604348530506627  0.680094205709489  1.0000
  O   O3        1.0  0.371598826036454  0.7969521289674102  0.8365508873802447  1.0000
  O   O4        1.0  0.4962126385368606  0.1124902345576082  0.6079696190845166  1.0000
