data_image0
_chemical_formula_structural       Li4O4
_chemical_formula_sum              "Li4 O4"
_cell_length_a       3.10263483
_cell_length_b       3.1026338289526874
_cell_length_c       7.56992946
_cell_angle_alpha    90.0
_cell_angle_beta     90.0
_cell_angle_gamma    119.99998945596172

_space_group_name_H-M_alt    "P 1"
_space_group_IT_number       1

loop_
  _space_group_symop_operation_xyz
  'x, y, z'

loop_
  _atom_site_type_symbol
  _atom_site_label
  _atom_site_symmetry_multiplicity
  _atom_site_fract_x
  _atom_site_fract_y
  _atom_site_fract_z
  _atom_site_occupancy
  Li  Li1       1.0  0.4958762362734177  0.35338707256121893  0.5660496841926985  1.0000
  Li  Li2       1.0  0.948956506634417  0.9173059276773756  0.60168741842232  1.0000
  Li  Li3       1.0  0.9108914134284376  0.32162275679516483  0.09165139411138279  1.0000
  Li  Li4       1.0  0.676260387179525  0.6254592148324534  0.7203329909879912  1.0000
  O   O1        1.0  0.476362321131532  0.35118909231432127  0.6731779679859535  1.0000
  O   O2        1.0  0.5562236153567  0.20853006533717178  0.38549892398326335  1.0000
  O   O3        1.0  0.7249745239290917  0.37545461043634987  0.7200813740843302  1.0000
  O   O4        1.0  0.09661017666556937  0.6444821928531681  0.518599265914375  1.0000
