data_image0
_chemical_formula_structural       Li4O4
_chemical_formula_sum              "Li4 O4"
_cell_length_a       3.10263483
_cell_length_b       3.1026338289526874
_cell_length_c       7.56992946
_cell_angle_alpha    90.0
_cell_angle_beta     90.0
_cell_angle_gamma    119.99998945596172

_space_group_name_H-M_alt    "P 1"
_space_group_IT_number       1

loop_
  _space_group_symop_operation_xyz
  'x, y, z'

loop_
  _atom_site_type_symbol
  _atom_site_label
  _atom_site_symmetry_multiplicity
  _atom_site_fract_x
  _atom_site_fract_y
  _atom_site_fract_z
  _atom_site_occupancy
  Li  Li1       1.0  0.10142847587823667  0.0005838603793222319  0.5201905799651456  1.0000
  Li  Li2       1.0  0.2610752649007395  0.778191459481377  0.16169827631062716  1.0000
  Li  Li3       1.0  0.9234943615196158  0.3799808474332025  0.5292357025501602  1.0000
  Li  Li4       1.0  0.854813955873361  0.25948846314479757  0.581662261755101  1.0000
  O   O1        1.0  0.8458734384132072  0.24359763549394664  0.13137715680294448  1.0000
  O   O2        1.0  0.32463146495443596  0.07505515756704284  0.8144139375802126  1.0000
  O   O3        1.0  0.4449965317041489  0.46543975983711405  0.0013010209605788248  1.0000
  O   O4        1.0  0.8997953293611793  0.03496077672874165  0.6853365249525041  1.0000
