data_image0
_chemical_formula_structural       Li4O4
_chemical_formula_sum              "Li4 O4"
_cell_length_a       3.10263483
_cell_length_b       3.1026338289526874
_cell_length_c       7.56992946
_cell_angle_alpha    90.0
_cell_angle_beta     90.0
_cell_angle_gamma    119.99998945596172

_space_group_name_H-M_alt    "P 1"
_space_group_IT_number       1

loop_
  _space_group_symop_operation_xyz
  'x, y, z'

loop_
  _atom_site_type_symbol
  _atom_site_label
  _atom_site_symmetry_multiplicity
  _atom_site_fract_x
  _atom_site_fract_y
  _atom_site_fract_z
  _atom_site_occupancy
  Li  Li1       1.0  0.776326618694128  0.9079144850091581  0.6202859322693683  1.0000
  Li  Li2       1.0  0.8874840329013978  0.12641070061937043  0.11203268357225582  1.0000
  Li  Li3       1.0  0.8433195149786741  0.20263221216451655  0.06380908672623598  1.0000
  Li  Li4       1.0  0.2754200061289538  0.15999890468307498  0.5608456146439011  1.0000
  O   O1        1.0  0.06359802702418094  0.1428668763206531  0.2257900560994397  1.0000
  O   O2        1.0  0.7834240478978103  0.35355848595858674  0.4211658625778938  1.0000
  O   O3        1.0  0.1512133063182688  0.06982515036530401  0.976877964624812  1.0000
  O   O4        1.0  0.03935166288315628  0.16082442834509614  0.9426008662674636  1.0000
