data_image0
_chemical_formula_structural       Li4O4
_chemical_formula_sum              "Li4 O4"
_cell_length_a       3.10263483
_cell_length_b       3.1026338289526874
_cell_length_c       7.56992946
_cell_angle_alpha    90.0
_cell_angle_beta     90.0
_cell_angle_gamma    119.99998945596172

_space_group_name_H-M_alt    "P 1"
_space_group_IT_number       1

loop_
  _space_group_symop_operation_xyz
  'x, y, z'

loop_
  _atom_site_type_symbol
  _atom_site_label
  _atom_site_symmetry_multiplicity
  _atom_site_fract_x
  _atom_site_fract_y
  _atom_site_fract_z
  _atom_site_occupancy
  Li  Li1       1.0  0.019531708687715366  0.3797626393353255  0.66752943620574  1.0000
  Li  Li2       1.0  0.29653175649198715  0.1770034234625122  0.33206082657646085  1.0000
  Li  Li3       1.0  0.22009801012079322  0.2535629503306467  0.88422153782526  1.0000
  Li  Li4       1.0  0.9265369056855945  0.8899547229749096  0.07017989136564395  1.0000
  O   O1        1.0  0.4401033611189291  0.1801067835018202  0.1533272962869212  1.0000
  O   O2        1.0  0.09796416277298192  0.45763164005210655  0.3815781990954683  1.0000
  O   O3        1.0  0.17513699483869516  0.7305222739275194  0.9941245257055904  1.0000
  O   O4        1.0  0.49001987268246694  0.5947833950180237  0.7726143959798382  1.0000
