data_image0
_chemical_formula_structural       Li4O4
_chemical_formula_sum              "Li4 O4"
_cell_length_a       3.10263483
_cell_length_b       3.1026338289526874
_cell_length_c       7.56992946
_cell_angle_alpha    90.0
_cell_angle_beta     90.0
_cell_angle_gamma    119.99998945596172

_space_group_name_H-M_alt    "P 1"
_space_group_IT_number       1

loop_
  _space_group_symop_operation_xyz
  'x, y, z'

loop_
  _atom_site_type_symbol
  _atom_site_label
  _atom_site_symmetry_multiplicity
  _atom_site_fract_x
  _atom_site_fract_y
  _atom_site_fract_z
  _atom_site_occupancy
  Li  Li1       1.0  0.8451221553914259  0.6319117127693885  0.15373974602887586  1.0000
  Li  Li2       1.0  0.6898987542344841  0.8418437306713287  0.9989697632693648  1.0000
  Li  Li3       1.0  0.22419011279841072  0.31582809092782327  0.908837272633221  1.0000
  Li  Li4       1.0  0.4918141467296735  0.14315434460162457  0.28212808430659564  1.0000
  O   O1        1.0  0.7983412721396377  0.5597232389031728  0.9600754935767384  1.0000
  O   O2        1.0  0.9852702085019089  0.40949942121911675  0.5609471734182705  1.0000
  O   O3        1.0  0.004950823591741482  0.1458948352303331  0.14683409040082562  1.0000
  O   O4        1.0  0.735979107832641  0.39634666641178207  0.2008780117993183  1.0000
