data_image0
_chemical_formula_structural       Li4O4
_chemical_formula_sum              "Li4 O4"
_cell_length_a       3.10263483
_cell_length_b       3.1026338289526874
_cell_length_c       7.56992946
_cell_angle_alpha    90.0
_cell_angle_beta     90.0
_cell_angle_gamma    119.99998945596172

_space_group_name_H-M_alt    "P 1"
_space_group_IT_number       1

loop_
  _space_group_symop_operation_xyz
  'x, y, z'

loop_
  _atom_site_type_symbol
  _atom_site_label
  _atom_site_symmetry_multiplicity
  _atom_site_fract_x
  _atom_site_fract_y
  _atom_site_fract_z
  _atom_site_occupancy
  Li  Li1       1.0  0.5247676249885842  0.9774718673171563  0.9867772908583348  1.0000
  Li  Li2       1.0  0.6746617106028481  0.4539091215066904  0.7136632918632486  1.0000
  Li  Li3       1.0  0.6027482540303737  0.17670933036760061  0.6433150389157305  1.0000
  Li  Li4       1.0  0.5812462323347205  0.9449970268516896  0.08028964048023912  1.0000
  O   O1        1.0  0.631972495167215  0.5607436718232721  0.855702788993634  1.0000
  O   O2        1.0  0.2467839399954208  0.6254265167356721  0.7716247037633615  1.0000
  O   O3        1.0  0.3983353950366748  0.29837260191869674  0.5818753065046874  1.0000
  O   O4        1.0  0.07384400266774449  0.7418549624310344  0.5015431833118447  1.0000
