data_image0
_chemical_formula_structural       Li4O4
_chemical_formula_sum              "Li4 O4"
_cell_length_a       3.10263483
_cell_length_b       3.1026338289526874
_cell_length_c       7.56992946
_cell_angle_alpha    90.0
_cell_angle_beta     90.0
_cell_angle_gamma    119.99998945596172

_space_group_name_H-M_alt    "P 1"
_space_group_IT_number       1

loop_
  _space_group_symop_operation_xyz
  'x, y, z'

loop_
  _atom_site_type_symbol
  _atom_site_label
  _atom_site_symmetry_multiplicity
  _atom_site_fract_x
  _atom_site_fract_y
  _atom_site_fract_z
  _atom_site_occupancy
  Li  Li1       1.0  0.7267335689042085  0.9895911554413885  0.5619265345280127  1.0000
  Li  Li2       1.0  0.3197665367567879  0.7122531694773926  0.6655266163637537  1.0000
  Li  Li3       1.0  0.29139194127639456  0.4313549629392526  0.39627779809527386  1.0000
  Li  Li4       1.0  0.37142166763723594  0.10543087093447667  0.33644874795969315  1.0000
  O   O1        1.0  0.5832131357436623  0.04741735087221599  0.0009222289802188754  1.0000
  O   O2        1.0  0.677398940326043  0.469581498376634  0.9344106513936765  1.0000
  O   O3        1.0  0.11555977244540827  0.842681404972403  0.9818679828316803  1.0000
  O   O4        1.0  0.7824867901594246  0.09716592480983355  0.9231901631661934  1.0000
