data_image0
_chemical_formula_structural       Li4O4
_chemical_formula_sum              "Li4 O4"
_cell_length_a       3.10263483
_cell_length_b       3.1026338289526874
_cell_length_c       7.56992946
_cell_angle_alpha    90.0
_cell_angle_beta     90.0
_cell_angle_gamma    119.99998945596172

_space_group_name_H-M_alt    "P 1"
_space_group_IT_number       1

loop_
  _space_group_symop_operation_xyz
  'x, y, z'

loop_
  _atom_site_type_symbol
  _atom_site_label
  _atom_site_symmetry_multiplicity
  _atom_site_fract_x
  _atom_site_fract_y
  _atom_site_fract_z
  _atom_site_occupancy
  Li  Li1       1.0  0.7964278542917143  0.48855459029660864  0.3890013050072838  1.0000
  Li  Li2       1.0  0.5073166528769946  0.655456732410201  0.8047489108803632  1.0000
  Li  Li3       1.0  0.47459978214443765  0.27048532064258524  0.29856789895769253  1.0000
  Li  Li4       1.0  0.24911906788130977  0.14103891663498302  0.41148516382321176  1.0000
  O   O1        1.0  0.7887577549858413  0.473136783899621  0.38995422888066145  1.0000
  O   O2        1.0  0.31520614753577547  0.869942003288017  0.7502358659971335  1.0000
  O   O3        1.0  0.3194464480460688  0.09008483051453986  0.3079695865019474  1.0000
  O   O4        1.0  0.5052641530147639  0.6597431542192425  0.68355219969202  1.0000
