data_image0
_chemical_formula_structural       Li4O4
_chemical_formula_sum              "Li4 O4"
_cell_length_a       3.10263483
_cell_length_b       3.1026338289526874
_cell_length_c       7.56992946
_cell_angle_alpha    90.0
_cell_angle_beta     90.0
_cell_angle_gamma    119.99998945596172

_space_group_name_H-M_alt    "P 1"
_space_group_IT_number       1

loop_
  _space_group_symop_operation_xyz
  'x, y, z'

loop_
  _atom_site_type_symbol
  _atom_site_label
  _atom_site_symmetry_multiplicity
  _atom_site_fract_x
  _atom_site_fract_y
  _atom_site_fract_z
  _atom_site_occupancy
  Li  Li1       1.0  0.48365581390366885  0.13831775760831988  0.8700675973535859  1.0000
  Li  Li2       1.0  0.6843767053447039  0.16779599296883152  0.03456014682668229  1.0000
  Li  Li3       1.0  0.7105955312154819  0.46086395440503836  0.3113570655956188  1.0000
  Li  Li4       1.0  0.3392758561655036  0.7877138090980598  0.44159614379859846  1.0000
  O   O1        1.0  0.6105880088302627  0.8045663295690844  0.017654818321947374  1.0000
  O   O2        1.0  0.4310196241560149  0.6406466831099138  0.7511254033427086  1.0000
  O   O3        1.0  0.5271630698901504  0.5336371817840022  0.4781291397340617  1.0000
  O   O4        1.0  0.03767391194497094  0.8770740451513994  0.17740465609884204  1.0000
