data_image0
_chemical_formula_structural       Li4O4
_chemical_formula_sum              "Li4 O4"
_cell_length_a       3.10263483
_cell_length_b       3.1026338289526874
_cell_length_c       7.56992946
_cell_angle_alpha    90.0
_cell_angle_beta     90.0
_cell_angle_gamma    119.99998945596172

_space_group_name_H-M_alt    "P 1"
_space_group_IT_number       1

loop_
  _space_group_symop_operation_xyz
  'x, y, z'

loop_
  _atom_site_type_symbol
  _atom_site_label
  _atom_site_symmetry_multiplicity
  _atom_site_fract_x
  _atom_site_fract_y
  _atom_site_fract_z
  _atom_site_occupancy
  Li  Li1       1.0  0.44164643977032725  0.33825347584374477  0.023109503821039823  1.0000
  Li  Li2       1.0  0.5361130056713534  0.9972604973409318  0.5752212420538569  1.0000
  Li  Li3       1.0  0.052397652666059  0.5184714786791211  0.7328013192911129  1.0000
  Li  Li4       1.0  0.558297475710031  0.4339557995211081  0.9622241274357854  1.0000
  O   O1        1.0  0.6465120606868364  0.831944348130147  0.6000127861763289  1.0000
  O   O2        1.0  0.6138652729490417  0.2297531175774168  0.9089683631012875  1.0000
  O   O3        1.0  0.5965914401999797  0.43474809175796736  0.3129677100472783  1.0000
  O   O4        1.0  0.21021360817466883  0.8201080910203871  0.4319588388877502  1.0000
