data_image0
_chemical_formula_structural       Li4O4
_chemical_formula_sum              "Li4 O4"
_cell_length_a       3.10263483
_cell_length_b       3.1026338289526874
_cell_length_c       7.56992946
_cell_angle_alpha    90.0
_cell_angle_beta     90.0
_cell_angle_gamma    119.99998945596172

_space_group_name_H-M_alt    "P 1"
_space_group_IT_number       1

loop_
  _space_group_symop_operation_xyz
  'x, y, z'

loop_
  _atom_site_type_symbol
  _atom_site_label
  _atom_site_symmetry_multiplicity
  _atom_site_fract_x
  _atom_site_fract_y
  _atom_site_fract_z
  _atom_site_occupancy
  Li  Li1       1.0  0.7561783698353892  0.8015864097735061  0.21931037396404207  1.0000
  Li  Li2       1.0  0.350772983475764  0.029249394473028545  0.04210608299243468  1.0000
  Li  Li3       1.0  0.4206195270568731  0.36281231545248716  0.13668130606654216  1.0000
  Li  Li4       1.0  0.5785195763065349  0.49469933597540106  0.25742228010008184  1.0000
  O   O1        1.0  0.37033179645868586  0.25403072814645  0.5889761714207267  1.0000
  O   O2        1.0  0.32457448840081327  0.3757858764898714  0.13385988244295177  1.0000
  O   O3        1.0  0.9233471445934569  0.04815547448318647  0.5474206198977569  1.0000
  O   O4        1.0  0.22401446068988662  0.782629160092176  0.5531453235870931  1.0000
