data_image0
_chemical_formula_structural       Li4O4
_chemical_formula_sum              "Li4 O4"
_cell_length_a       3.10263483
_cell_length_b       3.1026338289526874
_cell_length_c       7.56992946
_cell_angle_alpha    90.0
_cell_angle_beta     90.0
_cell_angle_gamma    119.99998945596172

_space_group_name_H-M_alt    "P 1"
_space_group_IT_number       1

loop_
  _space_group_symop_operation_xyz
  'x, y, z'

loop_
  _atom_site_type_symbol
  _atom_site_label
  _atom_site_symmetry_multiplicity
  _atom_site_fract_x
  _atom_site_fract_y
  _atom_site_fract_z
  _atom_site_occupancy
  Li  Li1       1.0  0.2122532814831164  0.38672729455348076  0.05079340920555708  1.0000
  Li  Li2       1.0  0.48554063781094214  0.518542727153902  0.7457949428578035  1.0000
  Li  Li3       1.0  0.48636453382800937  0.105296098542361  0.5259766318040562  1.0000
  Li  Li4       1.0  0.5417470574632617  0.5365183500000974  0.8113693465537573  1.0000
  O   O1        1.0  0.02234724286153522  0.02958922231085559  0.8635156528264103  1.0000
  O   O2        1.0  0.4628173134140352  0.30080500671727606  0.9432978631647639  1.0000
  O   O3        1.0  0.15130285184187287  0.8588221575691257  0.07730835232007571  1.0000
  O   O4        1.0  0.5739485183164987  0.7285330456336965  0.7677329181069954  1.0000
