data_image0
_chemical_formula_structural       Li4O4
_chemical_formula_sum              "Li4 O4"
_cell_length_a       3.10263483
_cell_length_b       3.1026338289526874
_cell_length_c       7.56992946
_cell_angle_alpha    90.0
_cell_angle_beta     90.0
_cell_angle_gamma    119.99998945596172

_space_group_name_H-M_alt    "P 1"
_space_group_IT_number       1

loop_
  _space_group_symop_operation_xyz
  'x, y, z'

loop_
  _atom_site_type_symbol
  _atom_site_label
  _atom_site_symmetry_multiplicity
  _atom_site_fract_x
  _atom_site_fract_y
  _atom_site_fract_z
  _atom_site_occupancy
  Li  Li1       1.0  0.6649628606552653  0.0952889442401954  0.9329180368808636  1.0000
  Li  Li2       1.0  0.6340257612519622  0.9360811806729217  0.3380753718187599  1.0000
  Li  Li3       1.0  0.610929517787433  0.8628176278549518  0.05196021926126271  1.0000
  Li  Li4       1.0  0.6341384906279686  0.20308856530716923  0.686242776746596  1.0000
  O   O1        1.0  0.22926494326208058  0.08599476082363111  0.17489268480170495  1.0000
  O   O2        1.0  0.8857733650649777  0.8821012616095629  0.4749725775087583  1.0000
  O   O3        1.0  0.3062524691331987  0.5855608153249818  0.7826408706344772  1.0000
  O   O4        1.0  0.1028105851938701  0.6662106056761745  0.5709218229679927  1.0000
