data_image0
_chemical_formula_structural       Li4O4
_chemical_formula_sum              "Li4 O4"
_cell_length_a       3.10263483
_cell_length_b       3.1026338289526874
_cell_length_c       7.56992946
_cell_angle_alpha    90.0
_cell_angle_beta     90.0
_cell_angle_gamma    119.99998945596172

_space_group_name_H-M_alt    "P 1"
_space_group_IT_number       1

loop_
  _space_group_symop_operation_xyz
  'x, y, z'

loop_
  _atom_site_type_symbol
  _atom_site_label
  _atom_site_symmetry_multiplicity
  _atom_site_fract_x
  _atom_site_fract_y
  _atom_site_fract_z
  _atom_site_occupancy
  Li  Li1       1.0  0.9325432394759872  0.34469547492849983  0.8961608692458576  1.0000
  Li  Li2       1.0  0.834734354432868  0.3681564474064345  0.9809365299816721  1.0000
  Li  Li3       1.0  0.39435639761403607  0.07734438242186314  0.6049837296122895  1.0000
  Li  Li4       1.0  0.47388912825472573  0.20938360029801117  0.051356372856137256  1.0000
  O   O1        1.0  0.944343745410336  0.48635479622777567  0.6621072333524038  1.0000
  O   O2        1.0  0.9962094498154563  0.8175057398884888  0.5463913759990433  1.0000
  O   O3        1.0  0.005899257376306366  0.7577699801375788  0.6457974554137653  1.0000
  O   O4        1.0  0.4689489865550698  0.4046689930324092  0.7955844755182468  1.0000
