data_image0
_chemical_formula_structural       Li4O4
_chemical_formula_sum              "Li4 O4"
_cell_length_a       3.10263483
_cell_length_b       3.1026338289526874
_cell_length_c       7.56992946
_cell_angle_alpha    90.0
_cell_angle_beta     90.0
_cell_angle_gamma    119.99998945596172

_space_group_name_H-M_alt    "P 1"
_space_group_IT_number       1

loop_
  _space_group_symop_operation_xyz
  'x, y, z'

loop_
  _atom_site_type_symbol
  _atom_site_label
  _atom_site_symmetry_multiplicity
  _atom_site_fract_x
  _atom_site_fract_y
  _atom_site_fract_z
  _atom_site_occupancy
  Li  Li1       1.0  0.3690861145985309  0.668641773292066  0.8182743427926837  1.0000
  Li  Li2       1.0  0.6330589165011418  0.7236749005860901  0.24001021708983217  1.0000
  Li  Li3       1.0  0.7492886419169338  0.2521685011043786  0.3577267459714548  1.0000
  Li  Li4       1.0  0.3405392470112645  0.11030724569829431  0.06705860742647474  1.0000
  O   O1        1.0  0.9968751915770611  0.5994241917352703  0.8949524772674593  1.0000
  O   O2        1.0  0.7328324089293119  0.8827957097254711  0.4092643971310821  1.0000
  O   O3        1.0  0.9260375682383142  0.6861227986941625  0.828110585146888  1.0000
  O   O4        1.0  0.3016420919168894  0.5903808144419997  0.18926740691785726  1.0000
