data_image0
_chemical_formula_structural       Li4O4
_chemical_formula_sum              "Li4 O4"
_cell_length_a       3.10263483
_cell_length_b       3.1026338289526874
_cell_length_c       7.56992946
_cell_angle_alpha    90.0
_cell_angle_beta     90.0
_cell_angle_gamma    119.99998945596172

_space_group_name_H-M_alt    "P 1"
_space_group_IT_number       1

loop_
  _space_group_symop_operation_xyz
  'x, y, z'

loop_
  _atom_site_type_symbol
  _atom_site_label
  _atom_site_symmetry_multiplicity
  _atom_site_fract_x
  _atom_site_fract_y
  _atom_site_fract_z
  _atom_site_occupancy
  Li  Li1       1.0  0.9000500785268315  0.9152344575944937  0.1624200520182768  1.0000
  Li  Li2       1.0  0.5306415366790134  0.66999956202703  0.08873249031879382  1.0000
  Li  Li3       1.0  0.06546226587103376  0.9119568808569909  0.38502674889864075  1.0000
  Li  Li4       1.0  0.868898807734972  0.10621288805022111  0.024182251449319736  1.0000
  O   O1        1.0  0.405007321758994  0.4815521773716611  0.6741915092996678  1.0000
  O   O2        1.0  0.7684406025562254  0.5166430448824499  0.41798524660257286  1.0000
  O   O3        1.0  0.8543333489616174  0.3254423048710535  0.4779800082451331  1.0000
  O   O4        1.0  0.6375840489600932  0.5437719344959495  0.8741812398173305  1.0000
