data_image0
_chemical_formula_structural       Li4O4
_chemical_formula_sum              "Li4 O4"
_cell_length_a       3.10263483
_cell_length_b       3.1026338289526874
_cell_length_c       7.56992946
_cell_angle_alpha    90.0
_cell_angle_beta     90.0
_cell_angle_gamma    119.99998945596172

_space_group_name_H-M_alt    "P 1"
_space_group_IT_number       1

loop_
  _space_group_symop_operation_xyz
  'x, y, z'

loop_
  _atom_site_type_symbol
  _atom_site_label
  _atom_site_symmetry_multiplicity
  _atom_site_fract_x
  _atom_site_fract_y
  _atom_site_fract_z
  _atom_site_occupancy
  Li  Li1       1.0  0.6661117855651639  0.970449153976972  0.8000435804962933  1.0000
  Li  Li2       1.0  0.5453676374949623  0.3317112270760134  0.4889440906890776  1.0000
  Li  Li3       1.0  0.9756937961136813  0.8644757304134032  0.16992785115912845  1.0000
  Li  Li4       1.0  0.2644124555598353  0.5871019845986822  0.5868774674571462  1.0000
  O   O1        1.0  0.04543023592415807  0.9466620955295895  0.5966375713626384  1.0000
  O   O2        1.0  0.1104354823104785  0.14477193521020126  0.564078608905664  1.0000
  O   O3        1.0  0.29144516814182  0.9104445221415034  0.5279544865703656  1.0000
  O   O4        1.0  0.6030445802288611  0.4173960573744786  0.9360885702922239  1.0000
