data_image0
_chemical_formula_structural       Li4O4
_chemical_formula_sum              "Li4 O4"
_cell_length_a       3.10263483
_cell_length_b       3.1026338289526874
_cell_length_c       7.56992946
_cell_angle_alpha    90.0
_cell_angle_beta     90.0
_cell_angle_gamma    119.99998945596172

_space_group_name_H-M_alt    "P 1"
_space_group_IT_number       1

loop_
  _space_group_symop_operation_xyz
  'x, y, z'

loop_
  _atom_site_type_symbol
  _atom_site_label
  _atom_site_symmetry_multiplicity
  _atom_site_fract_x
  _atom_site_fract_y
  _atom_site_fract_z
  _atom_site_occupancy
  Li  Li1       1.0  0.24130800414847897  0.5266220767255021  0.6993847196095331  1.0000
  Li  Li2       1.0  0.7039165534919078  0.2615891542923805  0.09695087893010612  1.0000
  Li  Li3       1.0  0.5410422274184015  0.009967559982499097  0.8049775869241653  1.0000
  Li  Li4       1.0  0.5050190034837385  0.7510818039645244  0.1430086370540593  1.0000
  O   O1        1.0  0.8787446936568628  0.10086579307314736  0.2800565722967505  1.0000
  O   O2        1.0  0.9334469063329891  0.3045361044897845  0.6895503663847826  1.0000
  O   O3        1.0  0.3474944204144066  0.8383442996978658  0.18647522758042  1.0000
  O   O4        1.0  0.5029532668267116  0.2778506295775962  0.7119870916641631  1.0000
