data_image0
_chemical_formula_structural       Li4O4
_chemical_formula_sum              "Li4 O4"
_cell_length_a       3.10263483
_cell_length_b       3.1026338289526874
_cell_length_c       7.56992946
_cell_angle_alpha    90.0
_cell_angle_beta     90.0
_cell_angle_gamma    119.99998945596172

_space_group_name_H-M_alt    "P 1"
_space_group_IT_number       1

loop_
  _space_group_symop_operation_xyz
  'x, y, z'

loop_
  _atom_site_type_symbol
  _atom_site_label
  _atom_site_symmetry_multiplicity
  _atom_site_fract_x
  _atom_site_fract_y
  _atom_site_fract_z
  _atom_site_occupancy
  Li  Li1       1.0  0.9283829404707618  0.6615511658253155  0.08706963103337273  1.0000
  Li  Li2       1.0  0.530702087805139  0.6428776874447841  0.3477794430957637  1.0000
  Li  Li3       1.0  0.1246188335922156  0.7934688659698281  0.4623399053507189  1.0000
  Li  Li4       1.0  0.1084103325739676  0.27290277804608465  0.3676532243699644  1.0000
  O   O1        1.0  0.26441737712772095  0.5724087429082267  0.6266627422873761  1.0000
  O   O2        1.0  0.6651565092042802  0.6757890699902269  0.5624132059139839  1.0000
  O   O3        1.0  0.2894567095819909  0.40760737665577196  0.0017206654569399404  1.0000
  O   O4        1.0  0.5526186224633989  0.6370332546559236  0.2861416414791238  1.0000
