data_image0
_chemical_formula_structural       Li4O4
_chemical_formula_sum              "Li4 O4"
_cell_length_a       3.10263483
_cell_length_b       3.1026338289526874
_cell_length_c       7.56992946
_cell_angle_alpha    90.0
_cell_angle_beta     90.0
_cell_angle_gamma    119.99998945596172

_space_group_name_H-M_alt    "P 1"
_space_group_IT_number       1

loop_
  _space_group_symop_operation_xyz
  'x, y, z'

loop_
  _atom_site_type_symbol
  _atom_site_label
  _atom_site_symmetry_multiplicity
  _atom_site_fract_x
  _atom_site_fract_y
  _atom_site_fract_z
  _atom_site_occupancy
  Li  Li1       1.0  0.39073895765451994  0.7622368117220617  0.17661813562120088  1.0000
  Li  Li2       1.0  0.7004806097395431  0.738514767658387  0.05918694873631125  1.0000
  Li  Li3       1.0  0.08243164594514951  0.48185210086685615  0.254809706687503  1.0000
  Li  Li4       1.0  0.5396036503863684  0.548093037206371  0.14128230828894317  1.0000
  O   O1        1.0  0.9504489673074588  0.08811501034264779  0.728425490342218  1.0000
  O   O2        1.0  0.5097433974494692  0.0316568326380775  0.9078886621768447  1.0000
  O   O3        1.0  0.8651664496820644  0.5992747464697743  0.2518040362495597  1.0000
  O   O4        1.0  0.16740651339888046  0.5494933129035928  0.7780080213248683  1.0000
