data_image0
_chemical_formula_structural       Li4O4
_chemical_formula_sum              "Li4 O4"
_cell_length_a       3.10263483
_cell_length_b       3.1026338289526874
_cell_length_c       7.56992946
_cell_angle_alpha    90.0
_cell_angle_beta     90.0
_cell_angle_gamma    119.99998945596172

_space_group_name_H-M_alt    "P 1"
_space_group_IT_number       1

loop_
  _space_group_symop_operation_xyz
  'x, y, z'

loop_
  _atom_site_type_symbol
  _atom_site_label
  _atom_site_symmetry_multiplicity
  _atom_site_fract_x
  _atom_site_fract_y
  _atom_site_fract_z
  _atom_site_occupancy
  Li  Li1       1.0  0.7951532004808115  0.3949935601389143  0.1105176105088077  1.0000
  Li  Li2       1.0  0.22357719980058732  0.7790399765766267  0.37723138204633955  1.0000
  Li  Li3       1.0  0.2839221034000161  0.6386065608320521  0.277486006316348  1.0000
  Li  Li4       1.0  0.2704685125302433  0.9196810215616722  0.6655376095610706  1.0000
  O   O1        1.0  0.9504616608534242  0.3583647667201397  0.9018487003932094  1.0000
  O   O2        1.0  0.22605607591782473  0.7840346644783693  0.6627114296105816  1.0000
  O   O3        1.0  0.8091470046006322  0.3271642386371707  0.15360289455561116  1.0000
  O   O4        1.0  0.6844994867446488  0.6594569331051332  0.755436684061566  1.0000
