data_image0
_chemical_formula_structural       Li4O4
_chemical_formula_sum              "Li4 O4"
_cell_length_a       3.10263483
_cell_length_b       3.1026338289526874
_cell_length_c       7.56992946
_cell_angle_alpha    90.0
_cell_angle_beta     90.0
_cell_angle_gamma    119.99998945596172

_space_group_name_H-M_alt    "P 1"
_space_group_IT_number       1

loop_
  _space_group_symop_operation_xyz
  'x, y, z'

loop_
  _atom_site_type_symbol
  _atom_site_label
  _atom_site_symmetry_multiplicity
  _atom_site_fract_x
  _atom_site_fract_y
  _atom_site_fract_z
  _atom_site_occupancy
  Li  Li1       1.0  0.31415367961217555  0.3734301731152172  0.9337133209162616  1.0000
  Li  Li2       1.0  0.8351079451104795  0.6946641063751287  0.14423029735617376  1.0000
  Li  Li3       1.0  0.4168382203286427  0.9716382190441806  0.45483493071096603  1.0000
  Li  Li4       1.0  0.5183351051813361  0.7930374546876351  0.3848275144847886  1.0000
  O   O1        1.0  0.9547014690758715  0.18536449036684033  0.8023140226647243  1.0000
  O   O2        1.0  0.507713959740201  0.3915281320136046  0.6099628395782943  1.0000
  O   O3        1.0  0.5033695233182627  0.6886971052896698  0.7893729897362505  1.0000
  O   O4        1.0  0.34166671536585724  0.7504250315610363  0.1336675472047908  1.0000
