data_image0
_chemical_formula_structural       Li4O4
_chemical_formula_sum              "Li4 O4"
_cell_length_a       3.10263483
_cell_length_b       3.1026338289526874
_cell_length_c       7.56992946
_cell_angle_alpha    90.0
_cell_angle_beta     90.0
_cell_angle_gamma    119.99998945596172

_space_group_name_H-M_alt    "P 1"
_space_group_IT_number       1

loop_
  _space_group_symop_operation_xyz
  'x, y, z'

loop_
  _atom_site_type_symbol
  _atom_site_label
  _atom_site_symmetry_multiplicity
  _atom_site_fract_x
  _atom_site_fract_y
  _atom_site_fract_z
  _atom_site_occupancy
  Li  Li1       1.0  0.0010955543415533953  0.9371836111649401  0.826023355434863  1.0000
  Li  Li2       1.0  0.7502743328757333  0.25444560461804144  0.4855168260380722  1.0000
  Li  Li3       1.0  0.5142772385125625  0.8337929929818628  0.8604724667060637  1.0000
  Li  Li4       1.0  0.027404067244219732  0.024007377153395737  0.8105641942206532  1.0000
  O   O1        1.0  0.8097777912429933  0.4693429965460467  0.05845399440950416  1.0000
  O   O2        1.0  0.8778779262801919  0.6866630821999706  0.04324856289668588  1.0000
  O   O3        1.0  0.9333902160719241  0.15326625196173893  0.14077519610312095  1.0000
  O   O4        1.0  0.9409073345391308  0.020194636485427964  0.8829489485528441  1.0000
