data_image0
_chemical_formula_structural       Li4O4
_chemical_formula_sum              "Li4 O4"
_cell_length_a       3.10263483
_cell_length_b       3.1026338289526874
_cell_length_c       7.56992946
_cell_angle_alpha    90.0
_cell_angle_beta     90.0
_cell_angle_gamma    119.99998945596172

_space_group_name_H-M_alt    "P 1"
_space_group_IT_number       1

loop_
  _space_group_symop_operation_xyz
  'x, y, z'

loop_
  _atom_site_type_symbol
  _atom_site_label
  _atom_site_symmetry_multiplicity
  _atom_site_fract_x
  _atom_site_fract_y
  _atom_site_fract_z
  _atom_site_occupancy
  Li  Li1       1.0  0.5684214643910108  0.49336205436249436  0.25613671872489796  1.0000
  Li  Li2       1.0  0.4386667974928713  0.2889690227543372  0.28161423220491955  1.0000
  Li  Li3       1.0  0.019848047669078994  0.897523867167255  0.276563712497663  1.0000
  Li  Li4       1.0  0.2540870665132724  0.4772757178057141  0.7663738575240444  1.0000
  O   O1        1.0  0.17981773075472773  0.8275789736934982  0.3942777447260033  1.0000
  O   O2        1.0  0.7641353136890743  0.6816995892601838  0.4728236285097829  1.0000
  O   O3        1.0  0.18515183474441166  0.5845364588469586  0.05727213098039252  1.0000
  O   O4        1.0  0.2914474967736673  0.9954116610521444  0.19846924545678846  1.0000
