data_image0
_chemical_formula_structural       Li4O4
_chemical_formula_sum              "Li4 O4"
_cell_length_a       3.10263483
_cell_length_b       3.1026338289526874
_cell_length_c       7.56992946
_cell_angle_alpha    90.0
_cell_angle_beta     90.0
_cell_angle_gamma    119.99998945596172

_space_group_name_H-M_alt    "P 1"
_space_group_IT_number       1

loop_
  _space_group_symop_operation_xyz
  'x, y, z'

loop_
  _atom_site_type_symbol
  _atom_site_label
  _atom_site_symmetry_multiplicity
  _atom_site_fract_x
  _atom_site_fract_y
  _atom_site_fract_z
  _atom_site_occupancy
  Li  Li1       1.0  0.47227851230837903  0.5472523086880869  0.3607411025924172  1.0000
  Li  Li2       1.0  0.9471902205833658  0.6769638459190581  0.15669675461644506  1.0000
  Li  Li3       1.0  0.1334199472818547  0.9482537533146385  0.4647778959858684  1.0000
  Li  Li4       1.0  0.5103870332748244  0.7097658635848365  0.8322481704510345  1.0000
  O   O1        1.0  0.29288732049102606  0.9052694284780713  0.6420468518120108  1.0000
  O   O2        1.0  0.24996085592457717  0.3657442146596708  0.26163160385013917  1.0000
  O   O3        1.0  0.7525580524845594  0.6605341892724965  0.3853877752854604  1.0000
  O   O4        1.0  0.9110685624255197  0.8194677408234838  0.9422515100558062  1.0000
