data_image0
_chemical_formula_structural       Li4O4
_chemical_formula_sum              "Li4 O4"
_cell_length_a       3.10263483
_cell_length_b       3.1026338289526874
_cell_length_c       7.56992946
_cell_angle_alpha    90.0
_cell_angle_beta     90.0
_cell_angle_gamma    119.99998945596172

_space_group_name_H-M_alt    "P 1"
_space_group_IT_number       1

loop_
  _space_group_symop_operation_xyz
  'x, y, z'

loop_
  _atom_site_type_symbol
  _atom_site_label
  _atom_site_symmetry_multiplicity
  _atom_site_fract_x
  _atom_site_fract_y
  _atom_site_fract_z
  _atom_site_occupancy
  Li  Li1       1.0  0.6516088949715488  0.1249669800907629  0.8277869954179096  1.0000
  Li  Li2       1.0  0.4218512303145019  0.3771382231761464  0.013592144860204769  1.0000
  Li  Li3       1.0  0.8780675163355482  0.8919991540617822  0.20772410656419282  1.0000
  Li  Li4       1.0  0.5191438423422596  0.9631327162731296  0.5218563162445484  1.0000
  O   O1        1.0  0.6151458555486133  0.9514270968677607  0.3081047294284929  1.0000
  O   O2        1.0  0.36291404866911137  0.21149381054244998  0.8670189929308165  1.0000
  O   O3        1.0  0.41092121438640206  0.885135002595987  0.2856577970478753  1.0000
  O   O4        1.0  0.4665615419283533  0.2894184726654103  0.6756314012359592  1.0000
