data_image0
_chemical_formula_structural       Li4O4
_chemical_formula_sum              "Li4 O4"
_cell_length_a       3.10263483
_cell_length_b       3.1026338289526874
_cell_length_c       7.56992946
_cell_angle_alpha    90.0
_cell_angle_beta     90.0
_cell_angle_gamma    119.99998945596172

_space_group_name_H-M_alt    "P 1"
_space_group_IT_number       1

loop_
  _space_group_symop_operation_xyz
  'x, y, z'

loop_
  _atom_site_type_symbol
  _atom_site_label
  _atom_site_symmetry_multiplicity
  _atom_site_fract_x
  _atom_site_fract_y
  _atom_site_fract_z
  _atom_site_occupancy
  Li  Li1       1.0  0.35933605184556683  0.04762672608560736  0.48987745988997844  1.0000
  Li  Li2       1.0  0.2108494949568252  0.6494063679236  0.7477677602352717  1.0000
  Li  Li3       1.0  0.42719985856892606  0.06617591778513443  0.3481904094563415  1.0000
  Li  Li4       1.0  0.10579150391181713  0.3196982784096676  0.6429926908991344  1.0000
  O   O1        1.0  0.32506887827591413  0.8020400098899585  0.6982539655172548  1.0000
  O   O2        1.0  0.5474858026546778  0.28451009286376916  0.646336215484304  1.0000
  O   O3        1.0  0.2639862634112813  0.5329959261509778  0.007034368300738336  1.0000
  O   O4        1.0  0.5572778992971053  0.08340372114688677  0.044612603399485806  1.0000
