data_image0
_chemical_formula_structural       Li4O4
_chemical_formula_sum              "Li4 O4"
_cell_length_a       3.10263483
_cell_length_b       3.1026338289526874
_cell_length_c       7.56992946
_cell_angle_alpha    90.0
_cell_angle_beta     90.0
_cell_angle_gamma    119.99998945596172

_space_group_name_H-M_alt    "P 1"
_space_group_IT_number       1

loop_
  _space_group_symop_operation_xyz
  'x, y, z'

loop_
  _atom_site_type_symbol
  _atom_site_label
  _atom_site_symmetry_multiplicity
  _atom_site_fract_x
  _atom_site_fract_y
  _atom_site_fract_z
  _atom_site_occupancy
  Li  Li1       1.0  0.7263810414732461  0.3766251983245965  0.7664806236298816  1.0000
  Li  Li2       1.0  0.37993166339137474  0.15045777650256298  0.7809612402643609  1.0000
  Li  Li3       1.0  0.41600156847852077  0.14917800536624526  0.474400761943194  1.0000
  Li  Li4       1.0  0.4708697682499974  0.9263183597963263  0.18266067543844144  1.0000
  O   O1        1.0  0.6817023593318794  0.9233728959009939  0.06821244723123954  1.0000
  O   O2        1.0  0.9209836700236167  0.16648195795619358  0.16300338046793428  1.0000
  O   O3        1.0  0.27941726180471527  0.8619785209988109  0.918927859566864  1.0000
  O   O4        1.0  0.6712386705787576  0.8601198835498849  0.059443248049820596  1.0000
