data_image0
_chemical_formula_structural       Li4O4
_chemical_formula_sum              "Li4 O4"
_cell_length_a       3.10263483
_cell_length_b       3.1026338289526874
_cell_length_c       7.56992946
_cell_angle_alpha    90.0
_cell_angle_beta     90.0
_cell_angle_gamma    119.99998945596172

_space_group_name_H-M_alt    "P 1"
_space_group_IT_number       1

loop_
  _space_group_symop_operation_xyz
  'x, y, z'

loop_
  _atom_site_type_symbol
  _atom_site_label
  _atom_site_symmetry_multiplicity
  _atom_site_fract_x
  _atom_site_fract_y
  _atom_site_fract_z
  _atom_site_occupancy
  Li  Li1       1.0  0.6597099662362638  0.683121997365923  0.6132602433990826  1.0000
  Li  Li2       1.0  0.7445198247506823  0.36755035444075546  0.1819245250324819  1.0000
  Li  Li3       1.0  0.924274451216192  0.2174899515489983  0.6574918910293164  1.0000
  Li  Li4       1.0  0.49547733772774905  0.610711443153086  0.31757569085722537  1.0000
  O   O1        1.0  0.3537798445510365  0.9888783962126286  0.40269246033040673  1.0000
  O   O2        1.0  0.20698615234007534  0.7211467642373695  0.17569609176798195  1.0000
  O   O3        1.0  0.4231052452346802  0.32364154075579066  0.8421939753937271  1.0000
  O   O4        1.0  0.6762294829959927  0.9178221087439837  0.25477504096085246  1.0000
