data_image0
_chemical_formula_structural       Li4O4
_chemical_formula_sum              "Li4 O4"
_cell_length_a       3.10263483
_cell_length_b       3.1026338289526874
_cell_length_c       7.56992946
_cell_angle_alpha    90.0
_cell_angle_beta     90.0
_cell_angle_gamma    119.99998945596172

_space_group_name_H-M_alt    "P 1"
_space_group_IT_number       1

loop_
  _space_group_symop_operation_xyz
  'x, y, z'

loop_
  _atom_site_type_symbol
  _atom_site_label
  _atom_site_symmetry_multiplicity
  _atom_site_fract_x
  _atom_site_fract_y
  _atom_site_fract_z
  _atom_site_occupancy
  Li  Li1       1.0  0.8871466931882281  0.693809153451241  0.31356064788450766  1.0000
  Li  Li2       1.0  0.4537299531638581  0.3750130841236654  0.0007190464034287913  1.0000
  Li  Li3       1.0  0.9403372291143626  0.7702037863230373  0.6677896256015998  1.0000
  Li  Li4       1.0  0.8346031260848719  0.31940282946781906  0.9512893393844291  1.0000
  O   O1        1.0  0.9546483447121226  0.005815407978914777  0.46116216629448203  1.0000
  O   O2        1.0  0.5400403524591013  0.607089099003062  0.5635279788282119  1.0000
  O   O3        1.0  0.07725552921938039  0.03474207770258264  0.5326727817805654  1.0000
  O   O4        1.0  0.06014977886002448  0.8176524692262959  0.5831704184057145  1.0000
