data_image0
_chemical_formula_structural       Li4O4
_chemical_formula_sum              "Li4 O4"
_cell_length_a       3.10263483
_cell_length_b       3.1026338289526874
_cell_length_c       7.56992946
_cell_angle_alpha    90.0
_cell_angle_beta     90.0
_cell_angle_gamma    119.99998945596172

_space_group_name_H-M_alt    "P 1"
_space_group_IT_number       1

loop_
  _space_group_symop_operation_xyz
  'x, y, z'

loop_
  _atom_site_type_symbol
  _atom_site_label
  _atom_site_symmetry_multiplicity
  _atom_site_fract_x
  _atom_site_fract_y
  _atom_site_fract_z
  _atom_site_occupancy
  Li  Li1       1.0  0.4872969896218713  0.39267387455078717  0.8342257522968026  1.0000
  Li  Li2       1.0  0.4755361077548841  0.9130494108436835  0.061982436176457156  1.0000
  Li  Li3       1.0  0.5286145929514561  0.6432787061996521  0.8568693871414759  1.0000
  Li  Li4       1.0  0.027698349351215512  0.719061285711355  0.9624843457509749  1.0000
  O   O1        1.0  0.8234553761862884  0.7316930568273785  0.9614848458525387  1.0000
  O   O2        1.0  0.4985983237724696  0.14421227097748357  0.6988809453944569  1.0000
  O   O3        1.0  0.8039933800624013  0.06223999403894709  0.511521414426408  1.0000
  O   O4        1.0  0.42210258682677093  0.3639738875031471  0.10350567575276415  1.0000
