data_image0
_chemical_formula_structural       Li4O4
_chemical_formula_sum              "Li4 O4"
_cell_length_a       3.10263483
_cell_length_b       3.1026338289526874
_cell_length_c       7.56992946
_cell_angle_alpha    90.0
_cell_angle_beta     90.0
_cell_angle_gamma    119.99998945596172

_space_group_name_H-M_alt    "P 1"
_space_group_IT_number       1

loop_
  _space_group_symop_operation_xyz
  'x, y, z'

loop_
  _atom_site_type_symbol
  _atom_site_label
  _atom_site_symmetry_multiplicity
  _atom_site_fract_x
  _atom_site_fract_y
  _atom_site_fract_z
  _atom_site_occupancy
  Li  Li1       1.0  0.4704016573324452  0.6195050767789922  0.35855777759252305  1.0000
  Li  Li2       1.0  0.6926272881192119  0.24043926638752855  0.9783957981437873  1.0000
  Li  Li3       1.0  0.7722297541596461  0.8895234289094986  0.7030469590024637  1.0000
  Li  Li4       1.0  0.6010841248214014  0.28468701517200756  0.9559018466572624  1.0000
  O   O1        1.0  0.9035532824578993  0.7618538519074551  0.9347675642387108  1.0000
  O   O2        1.0  0.5628546276368285  0.2910430169185929  0.14625126729004911  1.0000
  O   O3        1.0  0.7248686656780059  0.7473987253439578  0.9353478684250511  1.0000
  O   O4        1.0  0.04828168496123908  0.7824309650346937  0.8726075176094419  1.0000
