data_image0
_chemical_formula_structural       Li4O4
_chemical_formula_sum              "Li4 O4"
_cell_length_a       3.10263483
_cell_length_b       3.1026338289526874
_cell_length_c       7.56992946
_cell_angle_alpha    90.0
_cell_angle_beta     90.0
_cell_angle_gamma    119.99998945596172

_space_group_name_H-M_alt    "P 1"
_space_group_IT_number       1

loop_
  _space_group_symop_operation_xyz
  'x, y, z'

loop_
  _atom_site_type_symbol
  _atom_site_label
  _atom_site_symmetry_multiplicity
  _atom_site_fract_x
  _atom_site_fract_y
  _atom_site_fract_z
  _atom_site_occupancy
  Li  Li1       1.0  0.7416781879048493  0.047230273096786846  0.6676403987336421  1.0000
  Li  Li2       1.0  0.32598438688796705  0.9531017524225156  0.5631829774588883  1.0000
  Li  Li3       1.0  0.4599309230761932  0.48198294639536954  0.8654309019972306  1.0000
  Li  Li4       1.0  0.040454689803096855  0.02740720584801437  0.569203316891091  1.0000
  O   O1        1.0  0.36995674056794314  0.834718641985198  0.6022807085027999  1.0000
  O   O2        1.0  0.10804726126132635  0.7338362216679997  0.9306447973709986  1.0000
  O   O3        1.0  0.66020517590872  0.2550021346313702  0.019452752251570615  1.0000
  O   O4        1.0  0.874658531957607  0.8461973122131408  0.8686787425915998  1.0000
