data_image0
_chemical_formula_structural       Li4O4
_chemical_formula_sum              "Li4 O4"
_cell_length_a       3.10263483
_cell_length_b       3.1026338289526874
_cell_length_c       7.56992946
_cell_angle_alpha    90.0
_cell_angle_beta     90.0
_cell_angle_gamma    119.99998945596172

_space_group_name_H-M_alt    "P 1"
_space_group_IT_number       1

loop_
  _space_group_symop_operation_xyz
  'x, y, z'

loop_
  _atom_site_type_symbol
  _atom_site_label
  _atom_site_symmetry_multiplicity
  _atom_site_fract_x
  _atom_site_fract_y
  _atom_site_fract_z
  _atom_site_occupancy
  Li  Li1       1.0  0.802777681578398  0.6754495650775709  0.5557313326190112  1.0000
  Li  Li2       1.0  0.9105565342445345  0.7441682251858026  0.46834068832782694  1.0000
  Li  Li3       1.0  0.5618681064167497  0.6941406466073659  0.6307014322500706  1.0000
  Li  Li4       1.0  0.295397676920814  0.7704942457458799  0.8180434761346902  1.0000
  O   O1        1.0  0.561451400204561  0.6467213971022474  0.992831685231419  1.0000
  O   O2        1.0  0.09232356033359679  0.31742885786633934  0.9320155121687534  1.0000
  O   O3        1.0  0.002113792683843485  0.6896663529859381  0.26345093127743624  1.0000
  O   O4        1.0  0.011591169345981811  0.05306806308773604  0.3353600495915856  1.0000
