data_image0
_chemical_formula_structural       Li4O4
_chemical_formula_sum              "Li4 O4"
_cell_length_a       3.10263483
_cell_length_b       3.1026338289526874
_cell_length_c       7.56992946
_cell_angle_alpha    90.0
_cell_angle_beta     90.0
_cell_angle_gamma    119.99998945596172

_space_group_name_H-M_alt    "P 1"
_space_group_IT_number       1

loop_
  _space_group_symop_operation_xyz
  'x, y, z'

loop_
  _atom_site_type_symbol
  _atom_site_label
  _atom_site_symmetry_multiplicity
  _atom_site_fract_x
  _atom_site_fract_y
  _atom_site_fract_z
  _atom_site_occupancy
  Li  Li1       1.0  0.6111005324783783  0.24894877123207237  0.5304535399692618  1.0000
  Li  Li2       1.0  0.1505886397362417  0.272822343944803  0.9921635079880176  1.0000
  Li  Li3       1.0  0.16473583427523408  0.5524230999505733  0.34935619398757467  1.0000
  Li  Li4       1.0  0.8547899154692544  0.10537049014956779  0.5220808892252218  1.0000
  O   O1        1.0  0.3188516482328083  0.6206883145195441  0.8578066844948857  1.0000
  O   O2        1.0  0.546588690924839  0.3315525647366151  0.7498314881421564  1.0000
  O   O3        1.0  0.2434348661217811  0.8391790637553562  0.08752749340062294  1.0000
  O   O4        1.0  0.8854141910660935  0.06375492660976079  0.22603822352361957  1.0000
