data_image0
_chemical_formula_structural       Li4O4
_chemical_formula_sum              "Li4 O4"
_cell_length_a       3.10263483
_cell_length_b       3.1026338289526874
_cell_length_c       7.56992946
_cell_angle_alpha    90.0
_cell_angle_beta     90.0
_cell_angle_gamma    119.99998945596172

_space_group_name_H-M_alt    "P 1"
_space_group_IT_number       1

loop_
  _space_group_symop_operation_xyz
  'x, y, z'

loop_
  _atom_site_type_symbol
  _atom_site_label
  _atom_site_symmetry_multiplicity
  _atom_site_fract_x
  _atom_site_fract_y
  _atom_site_fract_z
  _atom_site_occupancy
  Li  Li1       1.0  0.5240250044282959  0.9231574303699261  0.024983438595960195  1.0000
  Li  Li2       1.0  0.6286772014457256  0.1927014700444616  0.35706804370320855  1.0000
  Li  Li3       1.0  0.712988148743122  0.05253885236663791  0.027680357866120886  1.0000
  Li  Li4       1.0  0.8625769466875646  0.08877810147958343  0.5306670192144196  1.0000
  O   O1        1.0  0.7121194444327301  0.5897035431361957  0.549570712866867  1.0000
  O   O2        1.0  0.22874844469293976  0.602647526541034  0.3598254737233795  1.0000
  O   O3        1.0  0.7208815273644547  0.7759376005498524  0.4895354300801742  1.0000
  O   O4        1.0  0.30507213463531  0.5543227006266891  0.8947375679009149  1.0000
