data_image0
_chemical_formula_structural       Li4O4
_chemical_formula_sum              "Li4 O4"
_cell_length_a       3.10263483
_cell_length_b       3.1026338289526874
_cell_length_c       7.56992946
_cell_angle_alpha    90.0
_cell_angle_beta     90.0
_cell_angle_gamma    119.99998945596172

_space_group_name_H-M_alt    "P 1"
_space_group_IT_number       1

loop_
  _space_group_symop_operation_xyz
  'x, y, z'

loop_
  _atom_site_type_symbol
  _atom_site_label
  _atom_site_symmetry_multiplicity
  _atom_site_fract_x
  _atom_site_fract_y
  _atom_site_fract_z
  _atom_site_occupancy
  Li  Li1       1.0  0.05461803251565356  0.6982443265140148  0.24464450458876996  1.0000
  Li  Li2       1.0  0.8619193378453645  0.5983422279289483  0.03844884053351194  1.0000
  Li  Li3       1.0  0.9332501976229999  0.43827402746064514  0.1367107549711264  1.0000
  Li  Li4       1.0  0.565170259963395  0.9879914567585573  0.9940283341261189  1.0000
  O   O1        1.0  0.1547751888304063  0.8250680315043208  0.8529123815865676  1.0000
  O   O2        1.0  0.520666623496232  0.2753593932563376  0.20039859667459936  1.0000
  O   O3        1.0  0.07021012508459279  0.2771598779025677  0.7702957973848132  1.0000
  O   O4        1.0  0.7632223592696903  0.906990614266828  0.3017271824125718  1.0000
