data_image0
_chemical_formula_structural       Li4O4
_chemical_formula_sum              "Li4 O4"
_cell_length_a       3.10263483
_cell_length_b       3.1026338289526874
_cell_length_c       7.56992946
_cell_angle_alpha    90.0
_cell_angle_beta     90.0
_cell_angle_gamma    119.99998945596172

_space_group_name_H-M_alt    "P 1"
_space_group_IT_number       1

loop_
  _space_group_symop_operation_xyz
  'x, y, z'

loop_
  _atom_site_type_symbol
  _atom_site_label
  _atom_site_symmetry_multiplicity
  _atom_site_fract_x
  _atom_site_fract_y
  _atom_site_fract_z
  _atom_site_occupancy
  Li  Li1       1.0  0.10860109746744939  0.04616697742845588  0.9109081909069019  1.0000
  Li  Li2       1.0  0.9051247302160164  0.6431512809997884  0.9813062869664435  1.0000
  Li  Li3       1.0  0.47938651338854754  0.9878653748341009  0.31520705639699287  1.0000
  Li  Li4       1.0  0.5602344642358759  0.787278936790841  0.7139559753926292  1.0000
  O   O1        1.0  0.12947012628526977  0.8822159659082089  0.7727623212257235  1.0000
  O   O2        1.0  0.05934925600691088  0.20266787977514866  0.8388031813535406  1.0000
  O   O3        1.0  0.7836594611740466  0.710236414000228  0.9456328508304495  1.0000
  O   O4        1.0  0.7769369699168029  0.12335041065480823  0.07832823253861676  1.0000
