data_image0
_chemical_formula_structural       Li4O4
_chemical_formula_sum              "Li4 O4"
_cell_length_a       3.10263483
_cell_length_b       3.1026338289526874
_cell_length_c       7.56992946
_cell_angle_alpha    90.0
_cell_angle_beta     90.0
_cell_angle_gamma    119.99998945596172

_space_group_name_H-M_alt    "P 1"
_space_group_IT_number       1

loop_
  _space_group_symop_operation_xyz
  'x, y, z'

loop_
  _atom_site_type_symbol
  _atom_site_label
  _atom_site_symmetry_multiplicity
  _atom_site_fract_x
  _atom_site_fract_y
  _atom_site_fract_z
  _atom_site_occupancy
  Li  Li1       1.0  0.20139025622692142  0.7365009948015455  0.15536240017127234  1.0000
  Li  Li2       1.0  0.8796412894311842  0.2704048436749984  0.7468263323654618  1.0000
  Li  Li3       1.0  0.7795660148141081  0.4959774973449882  0.6844184380381777  1.0000
  Li  Li4       1.0  0.69888292753686  0.5429422574271712  0.2318481065709026  1.0000
  O   O1        1.0  0.36753595014555174  0.28658520687565314  0.2765728027774639  1.0000
  O   O2        1.0  0.37523706715259664  0.17509049456673154  0.13138319624456063  1.0000
  O   O3        1.0  0.187899758244094  0.6632985913752716  0.15443889142411926  1.0000
  O   O4        1.0  0.944495449125256  0.7563365861705851  0.5783420521657394  1.0000
