data_image0
_chemical_formula_structural       Li4O4
_chemical_formula_sum              "Li4 O4"
_cell_length_a       3.10263483
_cell_length_b       3.1026338289526874
_cell_length_c       7.56992946
_cell_angle_alpha    90.0
_cell_angle_beta     90.0
_cell_angle_gamma    119.99998945596172

_space_group_name_H-M_alt    "P 1"
_space_group_IT_number       1

loop_
  _space_group_symop_operation_xyz
  'x, y, z'

loop_
  _atom_site_type_symbol
  _atom_site_label
  _atom_site_symmetry_multiplicity
  _atom_site_fract_x
  _atom_site_fract_y
  _atom_site_fract_z
  _atom_site_occupancy
  Li  Li1       1.0  0.19299144427479575  0.42598593639459637  0.058534171419225345  1.0000
  Li  Li2       1.0  0.018716534101457682  0.11776132360455449  0.5443039347467078  1.0000
  Li  Li3       1.0  0.9045626422640822  0.8041693321107886  0.9346026145504283  1.0000
  Li  Li4       1.0  0.4209631806336347  0.6956379497792966  0.41497930314999465  1.0000
  O   O1        1.0  0.5936795440005866  0.7668139339189253  0.9157430978305392  1.0000
  O   O2        1.0  0.32175271503191993  0.2919643236239722  0.9038398866358506  1.0000
  O   O3        1.0  0.7887544885212989  0.21148629654476991  0.33953928309970394  1.0000
  O   O4        1.0  0.7595059957111703  0.41841571578001435  0.012224216908727215  1.0000
