data_image0
_chemical_formula_structural       Li4O4
_chemical_formula_sum              "Li4 O4"
_cell_length_a       3.10263483
_cell_length_b       3.1026338289526874
_cell_length_c       7.56992946
_cell_angle_alpha    90.0
_cell_angle_beta     90.0
_cell_angle_gamma    119.99998945596172

_space_group_name_H-M_alt    "P 1"
_space_group_IT_number       1

loop_
  _space_group_symop_operation_xyz
  'x, y, z'

loop_
  _atom_site_type_symbol
  _atom_site_label
  _atom_site_symmetry_multiplicity
  _atom_site_fract_x
  _atom_site_fract_y
  _atom_site_fract_z
  _atom_site_occupancy
  Li  Li1       1.0  0.9112634829372332  0.15910237840678754  0.7639974876767255  1.0000
  Li  Li2       1.0  0.500196935579396  0.03950729958931731  0.18682700881038983  1.0000
  Li  Li3       1.0  0.8006650244119413  0.4939532495620522  0.00180324509819485  1.0000
  Li  Li4       1.0  0.9635951093249631  0.05651131454300895  0.37387160424393784  1.0000
  O   O1        1.0  0.389606815692753  0.5779078208071979  0.6657229566515994  1.0000
  O   O2        1.0  0.5881766777325765  0.2621088809522121  0.5449501586337959  1.0000
  O   O3        1.0  0.22857257989515745  0.8353874515740518  0.4782330323132733  1.0000
  O   O4        1.0  0.8949432423679573  0.8344421836204532  0.8003389899723974  1.0000
