data_image0
_chemical_formula_structural       Li4O4
_chemical_formula_sum              "Li4 O4"
_cell_length_a       3.10263483
_cell_length_b       3.1026338289526874
_cell_length_c       7.56992946
_cell_angle_alpha    90.0
_cell_angle_beta     90.0
_cell_angle_gamma    119.99998945596172

_space_group_name_H-M_alt    "P 1"
_space_group_IT_number       1

loop_
  _space_group_symop_operation_xyz
  'x, y, z'

loop_
  _atom_site_type_symbol
  _atom_site_label
  _atom_site_symmetry_multiplicity
  _atom_site_fract_x
  _atom_site_fract_y
  _atom_site_fract_z
  _atom_site_occupancy
  Li  Li1       1.0  0.9092703922443466  0.9406887094423695  0.2805869356724173  1.0000
  Li  Li2       1.0  0.882338536920372  0.5266251167667804  0.21434073653414032  1.0000
  Li  Li3       1.0  0.2156148442464172  0.4619503752903711  0.4409478119262005  1.0000
  Li  Li4       1.0  0.7818763345048723  0.5267975130054339  0.7684395458561681  1.0000
  O   O1        1.0  0.9402948229747885  0.7970431531277988  0.15877325407407739  1.0000
  O   O2        1.0  0.03759570633094711  0.45611131334719346  0.8357727943368758  1.0000
  O   O3        1.0  0.054057891725207696  0.5389688878587124  0.047570951356576074  1.0000
  O   O4        1.0  0.7516695092050352  0.07087409273815126  0.20726786850201862  1.0000
