data_image0
_chemical_formula_structural       Li4O4
_chemical_formula_sum              "Li4 O4"
_cell_length_a       3.10263483
_cell_length_b       3.1026338289526874
_cell_length_c       7.56992946
_cell_angle_alpha    90.0
_cell_angle_beta     90.0
_cell_angle_gamma    119.99998945596172

_space_group_name_H-M_alt    "P 1"
_space_group_IT_number       1

loop_
  _space_group_symop_operation_xyz
  'x, y, z'

loop_
  _atom_site_type_symbol
  _atom_site_label
  _atom_site_symmetry_multiplicity
  _atom_site_fract_x
  _atom_site_fract_y
  _atom_site_fract_z
  _atom_site_occupancy
  Li  Li1       1.0  0.2904127562877008  0.36551861291906107  0.7191001017994694  1.0000
  Li  Li2       1.0  0.7599775318525417  0.5756568108463185  0.4435587437336528  1.0000
  Li  Li3       1.0  0.668528481424147  0.15752534907196036  0.8940613118624583  1.0000
  Li  Li4       1.0  0.6507018467777996  0.08075247858660362  0.37434177846334293  1.0000
  O   O1        1.0  0.2678195958405212  0.07065636692175303  0.6722300398203203  1.0000
  O   O2        1.0  0.3788323766380728  0.5085346819349539  0.6695530719899736  1.0000
  O   O3        1.0  0.05170856283943692  0.948610327728133  0.845480410361457  1.0000
  O   O4        1.0  0.6688550691833459  0.8355025610760514  0.2861349713164607  1.0000
