data_image0
_chemical_formula_structural       Li4O4
_chemical_formula_sum              "Li4 O4"
_cell_length_a       3.10263483
_cell_length_b       3.1026338289526874
_cell_length_c       7.56992946
_cell_angle_alpha    90.0
_cell_angle_beta     90.0
_cell_angle_gamma    119.99998945596172

_space_group_name_H-M_alt    "P 1"
_space_group_IT_number       1

loop_
  _space_group_symop_operation_xyz
  'x, y, z'

loop_
  _atom_site_type_symbol
  _atom_site_label
  _atom_site_symmetry_multiplicity
  _atom_site_fract_x
  _atom_site_fract_y
  _atom_site_fract_z
  _atom_site_occupancy
  Li  Li1       1.0  0.14291923235597892  0.5978703425984477  0.039669583358325156  1.0000
  Li  Li2       1.0  0.28874895601097705  0.25058960588978607  0.5257834916546287  1.0000
  Li  Li3       1.0  0.9735257440468104  0.9287328733714943  0.13892469534279428  1.0000
  Li  Li4       1.0  0.879254743718235  0.13264461021967122  0.29239631453732784  1.0000
  O   O1        1.0  0.6084783581932278  0.10827652926257514  0.9875204076439772  1.0000
  O   O2        1.0  0.0845220255128254  0.7276373201723771  0.1183113628400676  1.0000
  O   O3        1.0  0.7623027700152747  0.6783960180241877  0.604778806866392  1.0000
  O   O4        1.0  0.16127636919168697  0.7398675152910243  0.7342282701600489  1.0000
