data_image0
_chemical_formula_structural       Li4O4
_chemical_formula_sum              "Li4 O4"
_cell_length_a       3.10263483
_cell_length_b       3.1026338289526874
_cell_length_c       7.56992946
_cell_angle_alpha    90.0
_cell_angle_beta     90.0
_cell_angle_gamma    119.99998945596172

_space_group_name_H-M_alt    "P 1"
_space_group_IT_number       1

loop_
  _space_group_symop_operation_xyz
  'x, y, z'

loop_
  _atom_site_type_symbol
  _atom_site_label
  _atom_site_symmetry_multiplicity
  _atom_site_fract_x
  _atom_site_fract_y
  _atom_site_fract_z
  _atom_site_occupancy
  Li  Li1       1.0  0.6074968709412687  0.714845562195638  0.14277001705274373  1.0000
  Li  Li2       1.0  0.7425854404610135  0.9138511752054441  0.7611336059929528  1.0000
  Li  Li3       1.0  0.6040582816887934  0.6994165953593523  0.86367049377359  1.0000
  Li  Li4       1.0  0.02289282321859787  0.054464332945603156  0.9958947279861006  1.0000
  O   O1        1.0  0.3209025318090397  0.4336736705535289  0.5413870154886347  1.0000
  O   O2        1.0  0.8834465223661496  0.340131767070762  0.6451062484788324  1.0000
  O   O3        1.0  0.06773306813553859  0.564692071445652  0.45855851491386446  1.0000
  O   O4        1.0  0.06203037800506905  0.9215230773265084  0.7337395900204493  1.0000
