data_image0
_chemical_formula_structural       Li4O4
_chemical_formula_sum              "Li4 O4"
_cell_length_a       3.10263483
_cell_length_b       3.1026338289526874
_cell_length_c       7.56992946
_cell_angle_alpha    90.0
_cell_angle_beta     90.0
_cell_angle_gamma    119.99998945596172

_space_group_name_H-M_alt    "P 1"
_space_group_IT_number       1

loop_
  _space_group_symop_operation_xyz
  'x, y, z'

loop_
  _atom_site_type_symbol
  _atom_site_label
  _atom_site_symmetry_multiplicity
  _atom_site_fract_x
  _atom_site_fract_y
  _atom_site_fract_z
  _atom_site_occupancy
  Li  Li1       1.0  0.6678998478903679  0.7470989140666688  0.3204200561097821  1.0000
  Li  Li2       1.0  0.9041862397769762  0.4845775256166416  0.9462299179010117  1.0000
  Li  Li3       1.0  0.7473856131823453  0.12074883779101242  0.4248741201675097  1.0000
  Li  Li4       1.0  0.5024020509457898  0.3488793521959517  0.33954089009309585  1.0000
  O   O1        1.0  0.38684429349130056  0.7978155466847738  0.47768159747737293  1.0000
  O   O2        1.0  0.24928337711578763  0.5481348237414423  0.1787202666056391  1.0000
  O   O3        1.0  0.3812120918417037  0.7901093160302537  0.5498564775838055  1.0000
  O   O4        1.0  0.6918589774579864  0.00834537231476773  0.6560766737971524  1.0000
