data_image0
_chemical_formula_structural       Li4O4
_chemical_formula_sum              "Li4 O4"
_cell_length_a       3.10263483
_cell_length_b       3.1026338289526874
_cell_length_c       7.56992946
_cell_angle_alpha    90.0
_cell_angle_beta     90.0
_cell_angle_gamma    119.99998945596172

_space_group_name_H-M_alt    "P 1"
_space_group_IT_number       1

loop_
  _space_group_symop_operation_xyz
  'x, y, z'

loop_
  _atom_site_type_symbol
  _atom_site_label
  _atom_site_symmetry_multiplicity
  _atom_site_fract_x
  _atom_site_fract_y
  _atom_site_fract_z
  _atom_site_occupancy
  Li  Li1       1.0  0.3394411009094782  0.3715432699250165  0.1933403177387536  1.0000
  Li  Li2       1.0  0.6084500147877918  0.9722849685451478  0.5574098856976022  1.0000
  Li  Li3       1.0  0.779450068149325  0.4230155650298997  0.7353072345895626  1.0000
  Li  Li4       1.0  0.2691158174335371  0.7808384889414732  0.00018992354853608617  1.0000
  O   O1        1.0  0.7384237677069194  0.07727529899514707  0.8539155066304795  1.0000
  O   O2        1.0  0.08282402558208446  0.9402832793877884  0.9665754244634126  1.0000
  O   O3        1.0  0.9679508438276141  0.6203812315770616  0.45104585138146147  1.0000
  O   O4        1.0  0.7875310909698285  0.3036540447332259  0.6125159050556297  1.0000
