data_image0
_chemical_formula_structural       Li4O4
_chemical_formula_sum              "Li4 O4"
_cell_length_a       3.10263483
_cell_length_b       3.1026338289526874
_cell_length_c       7.56992946
_cell_angle_alpha    90.0
_cell_angle_beta     90.0
_cell_angle_gamma    119.99998945596172

_space_group_name_H-M_alt    "P 1"
_space_group_IT_number       1

loop_
  _space_group_symop_operation_xyz
  'x, y, z'

loop_
  _atom_site_type_symbol
  _atom_site_label
  _atom_site_symmetry_multiplicity
  _atom_site_fract_x
  _atom_site_fract_y
  _atom_site_fract_z
  _atom_site_occupancy
  Li  Li1       1.0  0.5190913517310349  0.4695241273410744  0.4624642194624329  1.0000
  Li  Li2       1.0  0.4376409390280287  0.9095624835561109  0.9993986237002268  1.0000
  Li  Li3       1.0  0.7397382931630645  0.11591914731980069  0.36531956984581804  1.0000
  Li  Li4       1.0  0.8226629727420303  0.06640776706652218  0.1424727022526897  1.0000
  O   O1        1.0  0.5570302948428001  0.029030958144183217  0.17392741112311683  1.0000
  O   O2        1.0  0.4318705743543916  0.04239878908378358  0.2444344048311411  1.0000
  O   O3        1.0  0.5512843838352239  0.5664745119492807  0.9187589188280043  1.0000
  O   O4        1.0  0.8756226888267022  0.8200217862062598  0.7578966758826069  1.0000
