data_image0
_chemical_formula_structural       Li4O4
_chemical_formula_sum              "Li4 O4"
_cell_length_a       3.10263483
_cell_length_b       3.1026338289526874
_cell_length_c       7.56992946
_cell_angle_alpha    90.0
_cell_angle_beta     90.0
_cell_angle_gamma    119.99998945596172

_space_group_name_H-M_alt    "P 1"
_space_group_IT_number       1

loop_
  _space_group_symop_operation_xyz
  'x, y, z'

loop_
  _atom_site_type_symbol
  _atom_site_label
  _atom_site_symmetry_multiplicity
  _atom_site_fract_x
  _atom_site_fract_y
  _atom_site_fract_z
  _atom_site_occupancy
  Li  Li1       1.0  0.8473083726335346  0.6784615584174958  0.32534203091348246  1.0000
  Li  Li2       1.0  0.8375825175620975  0.10713721385635466  0.37635994159406305  1.0000
  Li  Li3       1.0  0.7498862935206212  0.3423291873425427  0.3783204010971346  1.0000
  Li  Li4       1.0  0.6441201272750163  0.6728904444599593  0.6114661698413002  1.0000
  O   O1        1.0  0.16980088724217524  0.49059441229754697  0.3931893367211856  1.0000
  O   O2        1.0  0.6283856654357862  0.3588057786424699  0.1972484445461724  1.0000
  O   O3        1.0  0.541253018756052  0.7652746556045713  0.11846693763589755  1.0000
  O   O4        1.0  0.2765037867848523  0.42298562630362635  0.24969308381520072  1.0000
