data_image0
_chemical_formula_structural       Li4O4
_chemical_formula_sum              "Li4 O4"
_cell_length_a       3.10263483
_cell_length_b       3.1026338289526874
_cell_length_c       7.56992946
_cell_angle_alpha    90.0
_cell_angle_beta     90.0
_cell_angle_gamma    119.99998945596172

_space_group_name_H-M_alt    "P 1"
_space_group_IT_number       1

loop_
  _space_group_symop_operation_xyz
  'x, y, z'

loop_
  _atom_site_type_symbol
  _atom_site_label
  _atom_site_symmetry_multiplicity
  _atom_site_fract_x
  _atom_site_fract_y
  _atom_site_fract_z
  _atom_site_occupancy
  Li  Li1       1.0  0.8422837442326525  0.010894714620867774  0.8318500284920294  1.0000
  Li  Li2       1.0  0.7611136087169683  0.8752509284865102  0.21454336977122068  1.0000
  Li  Li3       1.0  0.8861087139889428  0.6557352854098255  0.5893394618841548  1.0000
  Li  Li4       1.0  0.6911202403178631  0.26666239357060695  0.31845539739437  1.0000
  O   O1        1.0  0.4398860557756592  0.47619911714200924  0.5300333875138232  1.0000
  O   O2        1.0  0.8415341908069358  0.33349667006486783  0.40993973618906665  1.0000
  O   O3        1.0  0.05621668035973082  0.3900714133198351  0.41284015947916686  1.0000
  O   O4        1.0  0.39370260927033485  0.6580675733530206  0.2483339447586701  1.0000
