data_image0
_chemical_formula_structural       Li4O4
_chemical_formula_sum              "Li4 O4"
_cell_length_a       3.10263483
_cell_length_b       3.1026338289526874
_cell_length_c       7.56992946
_cell_angle_alpha    90.0
_cell_angle_beta     90.0
_cell_angle_gamma    119.99998945596172

_space_group_name_H-M_alt    "P 1"
_space_group_IT_number       1

loop_
  _space_group_symop_operation_xyz
  'x, y, z'

loop_
  _atom_site_type_symbol
  _atom_site_label
  _atom_site_symmetry_multiplicity
  _atom_site_fract_x
  _atom_site_fract_y
  _atom_site_fract_z
  _atom_site_occupancy
  Li  Li1       1.0  0.49262067599235737  0.2679827867875151  0.2795198881274956  1.0000
  Li  Li2       1.0  0.9597399261470514  0.2832804324358449  0.4417344701152892  1.0000
  Li  Li3       1.0  0.09450208798200777  0.010676441903328282  0.07838738221576236  1.0000
  Li  Li4       1.0  0.39455932051148146  0.7940181459879796  0.7186528953017404  1.0000
  O   O1        1.0  0.3984310011257932  0.5716211295384186  0.1983484632691095  1.0000
  O   O2        1.0  0.8629535257067573  0.4633095845867885  0.19144916822868652  1.0000
  O   O3        1.0  0.5304963222462717  0.38244456714406283  0.3306723179557842  1.0000
  O   O4        1.0  0.9767272966309264  0.5269460065842653  0.770010050321881  1.0000
