data_image0
_chemical_formula_structural       Li4O4
_chemical_formula_sum              "Li4 O4"
_cell_length_a       3.10263483
_cell_length_b       3.1026338289526874
_cell_length_c       7.56992946
_cell_angle_alpha    90.0
_cell_angle_beta     90.0
_cell_angle_gamma    119.99998945596172

_space_group_name_H-M_alt    "P 1"
_space_group_IT_number       1

loop_
  _space_group_symop_operation_xyz
  'x, y, z'

loop_
  _atom_site_type_symbol
  _atom_site_label
  _atom_site_symmetry_multiplicity
  _atom_site_fract_x
  _atom_site_fract_y
  _atom_site_fract_z
  _atom_site_occupancy
  Li  Li1       1.0  0.2842504509386128  0.5753729756389276  0.30476413044752526  1.0000
  Li  Li2       1.0  0.589915846027246  0.9477491875524278  0.1139964828918778  1.0000
  Li  Li3       1.0  0.5644548504098061  0.24433055693678796  0.7965765399181954  1.0000
  Li  Li4       1.0  0.3858938281246189  0.6555640915652177  0.7822354213282399  1.0000
  O   O1        1.0  0.07069064770845301  0.6359392966095072  0.5029386373156837  1.0000
  O   O2        1.0  0.5884672099626869  0.9609231288736595  0.5145878431571944  1.0000
  O   O3        1.0  0.1415095226568921  0.017883315780339082  0.010383451483232164  1.0000
  O   O4        1.0  0.29647212795818945  0.5575367144266155  0.6880070072416871  1.0000
