data_image0
_chemical_formula_structural       Li4O4
_chemical_formula_sum              "Li4 O4"
_cell_length_a       3.10263483
_cell_length_b       3.1026338289526874
_cell_length_c       7.56992946
_cell_angle_alpha    90.0
_cell_angle_beta     90.0
_cell_angle_gamma    119.99998945596172

_space_group_name_H-M_alt    "P 1"
_space_group_IT_number       1

loop_
  _space_group_symop_operation_xyz
  'x, y, z'

loop_
  _atom_site_type_symbol
  _atom_site_label
  _atom_site_symmetry_multiplicity
  _atom_site_fract_x
  _atom_site_fract_y
  _atom_site_fract_z
  _atom_site_occupancy
  Li  Li1       1.0  0.28884173119571344  0.6874713544138689  0.7042457812483391  1.0000
  Li  Li2       1.0  0.3553831717053626  0.7741150088571231  0.8522183680568602  1.0000
  Li  Li3       1.0  0.18182339866261543  0.04190349026694662  0.6718982260163386  1.0000
  Li  Li4       1.0  0.7019987666659482  0.2122423204236199  0.4336304334172878  1.0000
  O   O1        1.0  0.4559118410775227  0.4959644568474584  0.07584898508039828  1.0000
  O   O2        1.0  0.13887176791398304  0.7017770724969736  0.3676477723937239  1.0000
  O   O3        1.0  0.6602576439220655  0.09381065668262423  0.5336654178033964  1.0000
  O   O4        1.0  0.16562827784038348  0.4992869679148768  0.7531608696874574  1.0000
