data_image0
_chemical_formula_structural       Li4O4
_chemical_formula_sum              "Li4 O4"
_cell_length_a       3.10263483
_cell_length_b       3.1026338289526874
_cell_length_c       7.56992946
_cell_angle_alpha    90.0
_cell_angle_beta     90.0
_cell_angle_gamma    119.99998945596172

_space_group_name_H-M_alt    "P 1"
_space_group_IT_number       1

loop_
  _space_group_symop_operation_xyz
  'x, y, z'

loop_
  _atom_site_type_symbol
  _atom_site_label
  _atom_site_symmetry_multiplicity
  _atom_site_fract_x
  _atom_site_fract_y
  _atom_site_fract_z
  _atom_site_occupancy
  Li  Li1       1.0  0.36840513423422294  0.3628461956561182  0.7044553567389826  1.0000
  Li  Li2       1.0  0.5990388496163916  0.23046845075937483  0.03696690227354971  1.0000
  Li  Li3       1.0  0.04921128102211014  0.9836078270018618  0.5993955377276485  1.0000
  Li  Li4       1.0  0.4992716167174649  0.611890148531181  0.925845938350438  1.0000
  O   O1        1.0  0.8124173033795756  0.08556777954274963  0.605861222712452  1.0000
  O   O2        1.0  0.2142238761202293  0.8128659328093875  0.22132486152216302  1.0000
  O   O3        1.0  0.06907055424355235  0.9155832061015587  0.03084019708911967  1.0000
  O   O4        1.0  0.24601400129448336  0.9660121451193966  0.23056712928144663  1.0000
