data_image0
_chemical_formula_structural       Li4O4
_chemical_formula_sum              "Li4 O4"
_cell_length_a       3.10263483
_cell_length_b       3.1026338289526874
_cell_length_c       7.56992946
_cell_angle_alpha    90.0
_cell_angle_beta     90.0
_cell_angle_gamma    119.99998945596172

_space_group_name_H-M_alt    "P 1"
_space_group_IT_number       1

loop_
  _space_group_symop_operation_xyz
  'x, y, z'

loop_
  _atom_site_type_symbol
  _atom_site_label
  _atom_site_symmetry_multiplicity
  _atom_site_fract_x
  _atom_site_fract_y
  _atom_site_fract_z
  _atom_site_occupancy
  Li  Li1       1.0  0.6477389854563214  0.6271278209581403  0.9485996409637636  1.0000
  Li  Li2       1.0  0.08894701168395613  0.6921357594297746  0.36591039957344407  1.0000
  Li  Li3       1.0  0.7917701332043947  0.6010791947839493  0.9337730697928812  1.0000
  Li  Li4       1.0  0.5500304711472648  0.7743706565904906  0.14182174995073626  1.0000
  O   O1        1.0  0.44003307124934565  0.605951755744103  0.48492237304108343  1.0000
  O   O2        1.0  0.2830331626097262  0.9798005417309241  0.08740521162216908  1.0000
  O   O3        1.0  0.44287753246111095  0.3748274545215011  0.8360413120954533  1.0000
  O   O4        1.0  0.6085840314115067  0.3418688517783304  0.9997706410472631  1.0000
