data_image0
_chemical_formula_structural       Li4O4
_chemical_formula_sum              "Li4 O4"
_cell_length_a       3.10263483
_cell_length_b       3.1026338289526874
_cell_length_c       7.56992946
_cell_angle_alpha    90.0
_cell_angle_beta     90.0
_cell_angle_gamma    119.99998945596172

_space_group_name_H-M_alt    "P 1"
_space_group_IT_number       1

loop_
  _space_group_symop_operation_xyz
  'x, y, z'

loop_
  _atom_site_type_symbol
  _atom_site_label
  _atom_site_symmetry_multiplicity
  _atom_site_fract_x
  _atom_site_fract_y
  _atom_site_fract_z
  _atom_site_occupancy
  Li  Li1       1.0  0.7496776447600872  0.7354800616531207  0.8311407403359681  1.0000
  Li  Li2       1.0  0.14075456700993527  0.47605434846495065  0.139022233565802  1.0000
  Li  Li3       1.0  0.7777726224647878  0.06587269429985554  0.1064682043423204  1.0000
  Li  Li4       1.0  0.6574240260795765  0.872090454746596  0.6586889196996388  1.0000
  O   O1        1.0  0.38191797593220755  0.16138862805511422  0.8512226535259533  1.0000
  O   O2        1.0  0.9134909405269624  0.47475385239567913  0.04054454804012764  1.0000
  O   O3        1.0  0.8244406902933759  0.5722533353396475  0.7678006850151071  1.0000
  O   O4        1.0  0.6036028055709437  0.9390926092572407  0.7513286601672711  1.0000
