data_image0
_chemical_formula_structural       Li4O4
_chemical_formula_sum              "Li4 O4"
_cell_length_a       3.10263483
_cell_length_b       3.1026338289526874
_cell_length_c       7.56992946
_cell_angle_alpha    90.0
_cell_angle_beta     90.0
_cell_angle_gamma    119.99998945596172

_space_group_name_H-M_alt    "P 1"
_space_group_IT_number       1

loop_
  _space_group_symop_operation_xyz
  'x, y, z'

loop_
  _atom_site_type_symbol
  _atom_site_label
  _atom_site_symmetry_multiplicity
  _atom_site_fract_x
  _atom_site_fract_y
  _atom_site_fract_z
  _atom_site_occupancy
  Li  Li1       1.0  0.45933205352093687  0.5702059478316457  0.1385205750240459  1.0000
  Li  Li2       1.0  0.9413240811136632  0.49372731757500554  0.7247578580356482  1.0000
  Li  Li3       1.0  0.48138217570551944  0.7779289542716725  0.3526880294867967  1.0000
  Li  Li4       1.0  0.3216126061948579  0.8839991366361737  0.7787430165445546  1.0000
  O   O1        1.0  0.1024554622641034  0.8557673661036027  0.5050127765833166  1.0000
  O   O2        1.0  0.418665228611097  0.10862892352963271  0.5394218825293144  1.0000
  O   O3        1.0  0.297942875605286  0.3962245925752157  0.7603419665471582  1.0000
  O   O4        1.0  0.5061639056609337  0.8636552074926946  0.9899472199319677  1.0000
