data_image0
_chemical_formula_structural       Li4O4
_chemical_formula_sum              "Li4 O4"
_cell_length_a       3.10263483
_cell_length_b       3.1026338289526874
_cell_length_c       7.56992946
_cell_angle_alpha    90.0
_cell_angle_beta     90.0
_cell_angle_gamma    119.99998945596172

_space_group_name_H-M_alt    "P 1"
_space_group_IT_number       1

loop_
  _space_group_symop_operation_xyz
  'x, y, z'

loop_
  _atom_site_type_symbol
  _atom_site_label
  _atom_site_symmetry_multiplicity
  _atom_site_fract_x
  _atom_site_fract_y
  _atom_site_fract_z
  _atom_site_occupancy
  Li  Li1       1.0  0.7809112626945875  0.966483627163278  0.0039217924764969325  1.0000
  Li  Li2       1.0  0.6468390675181581  0.8612917388920209  0.43078044023874895  1.0000
  Li  Li3       1.0  0.5614881438570478  0.7815846223347691  0.4202806605975766  1.0000
  Li  Li4       1.0  0.6125980783002376  0.24894675365837315  0.505213550640903  1.0000
  O   O1        1.0  0.09451448517025796  0.30148415942310436  0.6672815786624255  1.0000
  O   O2        1.0  0.39424863454206616  0.3008701957656825  0.3773224121832186  1.0000
  O   O3        1.0  0.2785564930934541  0.44719922155579894  0.5672162460908297  1.0000
  O   O4        1.0  0.4176835239834418  0.9091424800843839  0.8096166900723851  1.0000
