data_image0
_chemical_formula_structural       Li4O4
_chemical_formula_sum              "Li4 O4"
_cell_length_a       3.10263483
_cell_length_b       3.1026338289526874
_cell_length_c       7.56992946
_cell_angle_alpha    90.0
_cell_angle_beta     90.0
_cell_angle_gamma    119.99998945596172

_space_group_name_H-M_alt    "P 1"
_space_group_IT_number       1

loop_
  _space_group_symop_operation_xyz
  'x, y, z'

loop_
  _atom_site_type_symbol
  _atom_site_label
  _atom_site_symmetry_multiplicity
  _atom_site_fract_x
  _atom_site_fract_y
  _atom_site_fract_z
  _atom_site_occupancy
  Li  Li1       1.0  0.5272446626760843  0.05535439560449529  0.5829757314986885  1.0000
  Li  Li2       1.0  0.8720240076436241  0.9312444196354033  0.0797492490624947  1.0000
  Li  Li3       1.0  0.8571489499183187  0.9122353046779423  0.07167276190611149  1.0000
  Li  Li4       1.0  0.21254956667611324  0.45793823273935885  0.17576942833208342  1.0000
  O   O1        1.0  0.2947489115133166  0.10490008516136484  0.25536828229537045  1.0000
  O   O2        1.0  0.6484812318101305  0.5484623024142508  0.6321953583310282  1.0000
  O   O3        1.0  0.5369919836656321  0.12932245776750584  0.41665704818883753  1.0000
  O   O4        1.0  0.22959289623114998  0.29551986113192896  0.9448057083898664  1.0000
