data_image0
_chemical_formula_structural       Li4O4
_chemical_formula_sum              "Li4 O4"
_cell_length_a       3.10263483
_cell_length_b       3.1026338289526874
_cell_length_c       7.56992946
_cell_angle_alpha    90.0
_cell_angle_beta     90.0
_cell_angle_gamma    119.99998945596172

_space_group_name_H-M_alt    "P 1"
_space_group_IT_number       1

loop_
  _space_group_symop_operation_xyz
  'x, y, z'

loop_
  _atom_site_type_symbol
  _atom_site_label
  _atom_site_symmetry_multiplicity
  _atom_site_fract_x
  _atom_site_fract_y
  _atom_site_fract_z
  _atom_site_occupancy
  Li  Li1       1.0  0.7031726788885067  0.5046634936100389  0.8365739514387442  1.0000
  Li  Li2       1.0  0.48003383242406983  0.043298705551023886  0.33475680071832414  1.0000
  Li  Li3       1.0  0.331060474564282  0.42610786494036645  0.9872872863825144  1.0000
  Li  Li4       1.0  0.14242366973052611  0.5318806596340444  0.8037597689891287  1.0000
  O   O1        1.0  0.2052097166254896  0.866664406212557  0.8882987397570687  1.0000
  O   O2        1.0  0.18522825872923931  0.9966242209287444  0.9342871517308993  1.0000
  O   O3        1.0  0.2733405004567153  0.11765432662969744  0.009525658403816806  1.0000
  O   O4        1.0  0.710442157232329  0.9938035905501863  0.6581045754036179  1.0000
