data_image0
_chemical_formula_structural       Li4O4
_chemical_formula_sum              "Li4 O4"
_cell_length_a       3.10263483
_cell_length_b       3.1026338289526874
_cell_length_c       7.56992946
_cell_angle_alpha    90.0
_cell_angle_beta     90.0
_cell_angle_gamma    119.99998945596172

_space_group_name_H-M_alt    "P 1"
_space_group_IT_number       1

loop_
  _space_group_symop_operation_xyz
  'x, y, z'

loop_
  _atom_site_type_symbol
  _atom_site_label
  _atom_site_symmetry_multiplicity
  _atom_site_fract_x
  _atom_site_fract_y
  _atom_site_fract_z
  _atom_site_occupancy
  Li  Li1       1.0  0.05179141054770753  0.36884187189586726  0.40709770278137114  1.0000
  Li  Li2       1.0  0.7198265922415885  0.8209885464028075  0.7157940317350686  1.0000
  Li  Li3       1.0  0.6594438588511977  0.08628589555948452  0.9765629466977455  1.0000
  Li  Li4       1.0  0.9477889720274391  0.5068126641285104  0.01774827344600416  1.0000
  O   O1        1.0  0.8717102290333791  0.1913094366521375  0.5700548824990221  1.0000
  O   O2        1.0  0.7519388363092645  0.7980736131766619  0.39786322998057067  1.0000
  O   O3        1.0  0.7842340912298553  0.2649203509062268  0.8737365625192908  1.0000
  O   O4        1.0  0.7985593948745446  0.8726389578949831  0.06415403480633053  1.0000
