data_image0
_chemical_formula_structural       Li4O4
_chemical_formula_sum              "Li4 O4"
_cell_length_a       3.10263483
_cell_length_b       3.1026338289526874
_cell_length_c       7.56992946
_cell_angle_alpha    90.0
_cell_angle_beta     90.0
_cell_angle_gamma    119.99998945596172

_space_group_name_H-M_alt    "P 1"
_space_group_IT_number       1

loop_
  _space_group_symop_operation_xyz
  'x, y, z'

loop_
  _atom_site_type_symbol
  _atom_site_label
  _atom_site_symmetry_multiplicity
  _atom_site_fract_x
  _atom_site_fract_y
  _atom_site_fract_z
  _atom_site_occupancy
  Li  Li1       1.0  0.9935922299244027  0.6670528730331142  0.8590344723415342  1.0000
  Li  Li2       1.0  0.9087438318637027  0.6223614536468638  0.8267078813386419  1.0000
  Li  Li3       1.0  0.15013252382490094  0.1961149594336078  0.13708979212364092  1.0000
  Li  Li4       1.0  0.06116860318492545  0.11416586650125082  0.8840491222491629  1.0000
  O   O1        1.0  0.6179638235899638  0.4870092663234935  0.9196153462083583  1.0000
  O   O2        1.0  0.3517820301060901  0.6323179005633932  0.3010387538168473  1.0000
  O   O3        1.0  0.8538900797049016  0.5454927094580384  0.61600052857397  1.0000
  O   O4        1.0  0.8135011265947227  0.09570299321101983  0.9989692705415063  1.0000
