data_image0
_chemical_formula_structural       Li4O4
_chemical_formula_sum              "Li4 O4"
_cell_length_a       3.10263483
_cell_length_b       3.1026338289526874
_cell_length_c       7.56992946
_cell_angle_alpha    90.0
_cell_angle_beta     90.0
_cell_angle_gamma    119.99998945596172

_space_group_name_H-M_alt    "P 1"
_space_group_IT_number       1

loop_
  _space_group_symop_operation_xyz
  'x, y, z'

loop_
  _atom_site_type_symbol
  _atom_site_label
  _atom_site_symmetry_multiplicity
  _atom_site_fract_x
  _atom_site_fract_y
  _atom_site_fract_z
  _atom_site_occupancy
  Li  Li1       1.0  0.7826605049688169  0.21575562716590113  0.7813026299140731  1.0000
  Li  Li2       1.0  0.2599815682452604  0.7757988876270048  0.8163229936704405  1.0000
  Li  Li3       1.0  0.27354254016682944  0.9467606123607268  0.22187114387384677  1.0000
  Li  Li4       1.0  0.5531836590003297  0.7495840803862208  0.053315702358988304  1.0000
  O   O1        1.0  0.6466269686545179  0.5575552840710343  0.7774938701311349  1.0000
  O   O2        1.0  0.8717564266157076  0.7174770978979845  0.20533472554384602  1.0000
  O   O3        1.0  0.4710715067785429  0.7798917640638741  0.3040886479901647  1.0000
  O   O4        1.0  0.26246411631186106  0.9612207476885253  0.5275684596366252  1.0000
