data_image0
_chemical_formula_structural       Li4O4
_chemical_formula_sum              "Li4 O4"
_cell_length_a       3.10263483
_cell_length_b       3.1026338289526874
_cell_length_c       7.56992946
_cell_angle_alpha    90.0
_cell_angle_beta     90.0
_cell_angle_gamma    119.99998945596172

_space_group_name_H-M_alt    "P 1"
_space_group_IT_number       1

loop_
  _space_group_symop_operation_xyz
  'x, y, z'

loop_
  _atom_site_type_symbol
  _atom_site_label
  _atom_site_symmetry_multiplicity
  _atom_site_fract_x
  _atom_site_fract_y
  _atom_site_fract_z
  _atom_site_occupancy
  Li  Li1       1.0  0.4354696261178024  0.10119373519211194  0.06170666263299118  1.0000
  Li  Li2       1.0  0.2664955533153659  0.2863152375222633  0.24771717883198363  1.0000
  Li  Li3       1.0  0.580588231641519  0.6612147850033807  0.024802573392387117  1.0000
  Li  Li4       1.0  0.3077534394872945  0.015562542285362468  0.6503521187563024  1.0000
  O   O1        1.0  0.829173709733432  0.20860805129951387  0.3582251927316107  1.0000
  O   O2        1.0  0.5102383571429954  0.9603094593555177  0.34838700925275035  1.0000
  O   O3        1.0  0.5488536361509473  0.7224202865809142  0.3247212938683628  1.0000
  O   O4        1.0  0.40204403878984607  0.25866398676198  0.558842912401623  1.0000
