data_image0
_chemical_formula_structural       Li4O4
_chemical_formula_sum              "Li4 O4"
_cell_length_a       3.10263483
_cell_length_b       3.1026338289526874
_cell_length_c       7.56992946
_cell_angle_alpha    90.0
_cell_angle_beta     90.0
_cell_angle_gamma    119.99998945596172

_space_group_name_H-M_alt    "P 1"
_space_group_IT_number       1

loop_
  _space_group_symop_operation_xyz
  'x, y, z'

loop_
  _atom_site_type_symbol
  _atom_site_label
  _atom_site_symmetry_multiplicity
  _atom_site_fract_x
  _atom_site_fract_y
  _atom_site_fract_z
  _atom_site_occupancy
  Li  Li1       1.0  0.35332905350963983  0.5410032107199498  0.5465560295771326  1.0000
  Li  Li2       1.0  0.8246646432308751  0.6283461041200553  0.7661898794318418  1.0000
  Li  Li3       1.0  0.5432893567653565  0.1310911446503482  0.5740662586510794  1.0000
  Li  Li4       1.0  0.2397841321345311  0.25474684962742344  0.5288650187598094  1.0000
  O   O1        1.0  0.013092751310253448  0.9709520837880063  0.3323447759152742  1.0000
  O   O2        1.0  0.9312268443913752  0.6511776069509807  0.8824523836886939  1.0000
  O   O3        1.0  0.7989414354208861  0.06919042220313187  0.2939372014786983  1.0000
  O   O4        1.0  0.7941644679950528  0.47118765673307905  0.11647255506797549  1.0000
