data_image0
_chemical_formula_structural       Li4O4
_chemical_formula_sum              "Li4 O4"
_cell_length_a       3.10263483
_cell_length_b       3.1026338289526874
_cell_length_c       7.56992946
_cell_angle_alpha    90.0
_cell_angle_beta     90.0
_cell_angle_gamma    119.99998945596172

_space_group_name_H-M_alt    "P 1"
_space_group_IT_number       1

loop_
  _space_group_symop_operation_xyz
  'x, y, z'

loop_
  _atom_site_type_symbol
  _atom_site_label
  _atom_site_symmetry_multiplicity
  _atom_site_fract_x
  _atom_site_fract_y
  _atom_site_fract_z
  _atom_site_occupancy
  Li  Li1       1.0  0.12420568793146458  0.10971140973064131  0.5951751138813854  1.0000
  Li  Li2       1.0  0.5110448568114379  0.1293987093510851  0.6894180236587495  1.0000
  Li  Li3       1.0  0.9893272231098216  0.8207475654715672  0.7958795679169595  1.0000
  Li  Li4       1.0  0.17458479686962214  0.16614100016855815  0.9384212423584923  1.0000
  O   O1        1.0  0.28009358538468376  0.6589579525680236  0.0842115739791991  1.0000
  O   O2        1.0  0.6898879757228116  0.861833968832066  0.6760077267829363  1.0000
  O   O3        1.0  0.23915691017039542  0.2387958116637261  0.6742132045443752  1.0000
  O   O4        1.0  0.9595658220372165  0.3440647280939366  0.1917735388461086  1.0000
