data_image0
_chemical_formula_structural       Li4O4
_chemical_formula_sum              "Li4 O4"
_cell_length_a       3.10263483
_cell_length_b       3.1026338289526874
_cell_length_c       7.56992946
_cell_angle_alpha    90.0
_cell_angle_beta     90.0
_cell_angle_gamma    119.99998945596172

_space_group_name_H-M_alt    "P 1"
_space_group_IT_number       1

loop_
  _space_group_symop_operation_xyz
  'x, y, z'

loop_
  _atom_site_type_symbol
  _atom_site_label
  _atom_site_symmetry_multiplicity
  _atom_site_fract_x
  _atom_site_fract_y
  _atom_site_fract_z
  _atom_site_occupancy
  Li  Li1       1.0  0.107927231305041  0.6979673764099203  0.9971321076940356  1.0000
  Li  Li2       1.0  0.40408082281544466  0.07660136867066125  0.34991706358038144  1.0000
  Li  Li3       1.0  0.3521492317709374  0.9405575247300249  0.4991853652798035  1.0000
  Li  Li4       1.0  0.43130401808777563  0.49701259323052227  0.7786566268130972  1.0000
  O   O1        1.0  0.08545210478224163  0.046758432301936104  0.5743785492882854  1.0000
  O   O2        1.0  0.8089840857672783  0.7239345073646462  0.40036200075326356  1.0000
  O   O3        1.0  0.39697989256536914  0.29681643845330896  0.2007966927249818  1.0000
  O   O4        1.0  0.5977591149609154  0.06378044465763644  0.8340800252567435  1.0000
