data_image0
_chemical_formula_structural       Li4O4
_chemical_formula_sum              "Li4 O4"
_cell_length_a       3.10263483
_cell_length_b       3.1026338289526874
_cell_length_c       7.56992946
_cell_angle_alpha    90.0
_cell_angle_beta     90.0
_cell_angle_gamma    119.99998945596172

_space_group_name_H-M_alt    "P 1"
_space_group_IT_number       1

loop_
  _space_group_symop_operation_xyz
  'x, y, z'

loop_
  _atom_site_type_symbol
  _atom_site_label
  _atom_site_symmetry_multiplicity
  _atom_site_fract_x
  _atom_site_fract_y
  _atom_site_fract_z
  _atom_site_occupancy
  Li  Li1       1.0  0.28667291602263134  0.14199054712609183  0.6185095718698044  1.0000
  Li  Li2       1.0  0.42742966090631285  0.5525952105291765  0.0014308609547306617  1.0000
  Li  Li3       1.0  0.06883532206109066  0.42507069042734  0.7976036970174327  1.0000
  Li  Li4       1.0  0.8931191529699003  0.1248932523935804  0.9488760369393376  1.0000
  O   O1        1.0  0.19291669854800375  0.8960535938361067  0.020840514522404874  1.0000
  O   O2        1.0  0.6968147951886152  0.26475599709325337  0.4945937874163917  1.0000
  O   O3        1.0  0.1835538774055152  0.3064482046456263  0.4631873082304274  1.0000
  O   O4        1.0  0.3947010395732846  0.32473994063442113  0.2609136871789435  1.0000
