data_image0
_chemical_formula_structural       Li4O4
_chemical_formula_sum              "Li4 O4"
_cell_length_a       3.10263483
_cell_length_b       3.1026338289526874
_cell_length_c       7.56992946
_cell_angle_alpha    90.0
_cell_angle_beta     90.0
_cell_angle_gamma    119.99998945596172

_space_group_name_H-M_alt    "P 1"
_space_group_IT_number       1

loop_
  _space_group_symop_operation_xyz
  'x, y, z'

loop_
  _atom_site_type_symbol
  _atom_site_label
  _atom_site_symmetry_multiplicity
  _atom_site_fract_x
  _atom_site_fract_y
  _atom_site_fract_z
  _atom_site_occupancy
  Li  Li1       1.0  0.46583007727421766  0.9293079260189785  0.23820546706494916  1.0000
  Li  Li2       1.0  0.09405437398544336  0.8351608254651905  0.9180686373363223  1.0000
  Li  Li3       1.0  0.004090242224984664  0.8743061212806609  0.5121464673210259  1.0000
  Li  Li4       1.0  0.5220735455841014  0.056528250714123374  0.6302780267167538  1.0000
  O   O1        1.0  0.5114034198444912  0.2579839587817929  0.7471623190750063  1.0000
  O   O2        1.0  0.4342310609540192  0.05575712594777471  0.44628844820257996  1.0000
  O   O3        1.0  0.796355433570958  0.5246196926088622  0.8582935958638584  1.0000
  O   O4        1.0  0.9507500577396826  0.4697626213976118  0.3524125900029711  1.0000
