data_image0
_chemical_formula_structural       Li4O4
_chemical_formula_sum              "Li4 O4"
_cell_length_a       3.10263483
_cell_length_b       3.1026338289526874
_cell_length_c       7.56992946
_cell_angle_alpha    90.0
_cell_angle_beta     90.0
_cell_angle_gamma    119.99998945596172

_space_group_name_H-M_alt    "P 1"
_space_group_IT_number       1

loop_
  _space_group_symop_operation_xyz
  'x, y, z'

loop_
  _atom_site_type_symbol
  _atom_site_label
  _atom_site_symmetry_multiplicity
  _atom_site_fract_x
  _atom_site_fract_y
  _atom_site_fract_z
  _atom_site_occupancy
  Li  Li1       1.0  0.285530049275053  0.45077505991275757  0.11802618764517092  1.0000
  Li  Li2       1.0  0.9971904970749534  0.5553680971581425  0.34129966760176167  1.0000
  Li  Li3       1.0  0.29093445492442527  0.12254455597164338  0.7946551494544885  1.0000
  Li  Li4       1.0  0.3616271247004903  0.055559469777112014  0.36751017955183407  1.0000
  O   O1        1.0  0.08932964856458758  0.51714193829834  0.8697841229388779  1.0000
  O   O2        1.0  0.3197736267215241  0.9611252434217796  0.9462125302463242  1.0000
  O   O3        1.0  0.5378784941105152  0.7894248710594773  0.013146221169466621  1.0000
  O   O4        1.0  0.7445043894636392  0.08565872565169386  0.6810317878180281  1.0000
