data_image0
_chemical_formula_structural       Li4O4
_chemical_formula_sum              "Li4 O4"
_cell_length_a       3.10263483
_cell_length_b       3.1026338289526874
_cell_length_c       7.56992946
_cell_angle_alpha    90.0
_cell_angle_beta     90.0
_cell_angle_gamma    119.99998945596172

_space_group_name_H-M_alt    "P 1"
_space_group_IT_number       1

loop_
  _space_group_symop_operation_xyz
  'x, y, z'

loop_
  _atom_site_type_symbol
  _atom_site_label
  _atom_site_symmetry_multiplicity
  _atom_site_fract_x
  _atom_site_fract_y
  _atom_site_fract_z
  _atom_site_occupancy
  Li  Li1       1.0  0.6146268387059166  0.05312720475602717  0.5934325443605459  1.0000
  Li  Li2       1.0  0.9965175449593424  0.5173172658731349  0.1033633174535904  1.0000
  Li  Li3       1.0  0.6119069828949932  0.030256094191301486  0.7751513442655789  1.0000
  Li  Li4       1.0  0.7337105434717053  0.4729651428283468  0.103530291609788  1.0000
  O   O1        1.0  0.4632240553856011  0.6012700984821683  0.758818500731179  1.0000
  O   O2        1.0  0.5916739500587607  0.25264341988616046  0.3825773619265611  1.0000
  O   O3        1.0  0.7927762606853825  0.6269308816133545  0.5650076797413071  1.0000
  O   O4        1.0  0.030745456034516394  0.5775465591963247  0.6642697530721584  1.0000
