data_image0
_chemical_formula_structural       Li4O4
_chemical_formula_sum              "Li4 O4"
_cell_length_a       3.10263483
_cell_length_b       3.1026338289526874
_cell_length_c       7.56992946
_cell_angle_alpha    90.0
_cell_angle_beta     90.0
_cell_angle_gamma    119.99998945596172

_space_group_name_H-M_alt    "P 1"
_space_group_IT_number       1

loop_
  _space_group_symop_operation_xyz
  'x, y, z'

loop_
  _atom_site_type_symbol
  _atom_site_label
  _atom_site_symmetry_multiplicity
  _atom_site_fract_x
  _atom_site_fract_y
  _atom_site_fract_z
  _atom_site_occupancy
  Li  Li1       1.0  0.365517143601906  0.1341992435385322  0.7825971590611616  1.0000
  Li  Li2       1.0  0.22302236609804993  0.23064695339263608  0.3178277853608611  1.0000
  Li  Li3       1.0  0.6241453317148427  0.8182842882872023  0.9958424252498924  1.0000
  Li  Li4       1.0  0.565874983641578  0.6958082601840232  0.2841108349358734  1.0000
  O   O1        1.0  0.05570749249596929  0.4725512115426511  0.004854165557780732  1.0000
  O   O2        1.0  0.7709454251619405  0.6375565770565927  0.9144076753456432  1.0000
  O   O3        1.0  0.08663629854399346  0.8956382959219695  0.6253136731732241  1.0000
  O   O4        1.0  0.5055565930533668  0.4084149761633675  0.4629347224924043  1.0000
