data_image0
_chemical_formula_structural       Li4O4
_chemical_formula_sum              "Li4 O4"
_cell_length_a       3.10263483
_cell_length_b       3.1026338289526874
_cell_length_c       7.56992946
_cell_angle_alpha    90.0
_cell_angle_beta     90.0
_cell_angle_gamma    119.99998945596172

_space_group_name_H-M_alt    "P 1"
_space_group_IT_number       1

loop_
  _space_group_symop_operation_xyz
  'x, y, z'

loop_
  _atom_site_type_symbol
  _atom_site_label
  _atom_site_symmetry_multiplicity
  _atom_site_fract_x
  _atom_site_fract_y
  _atom_site_fract_z
  _atom_site_occupancy
  Li  Li1       1.0  0.24745470726681162  0.3538903504835531  0.3045337665615335  1.0000
  Li  Li2       1.0  0.503774965623137  0.9225969911340339  0.48785481011788967  1.0000
  Li  Li3       1.0  0.04635977847922845  0.12207943147110711  0.19546305267959418  1.0000
  Li  Li4       1.0  0.018996778592892838  0.3672484959383837  0.3253179667272743  1.0000
  O   O1        1.0  0.7458701246962356  0.8432183232801265  0.665993543080047  1.0000
  O   O2        1.0  0.4029111160558756  0.39336196725307104  0.8245234561890094  1.0000
  O   O3        1.0  0.18695574499659529  0.4365782720156979  0.30451704442645067  1.0000
  O   O4        1.0  0.4994598741789602  0.2848244519264487  0.3928508989777968  1.0000
