data_image0
_chemical_formula_structural       Li4O4
_chemical_formula_sum              "Li4 O4"
_cell_length_a       3.10263483
_cell_length_b       3.1026338289526874
_cell_length_c       7.56992946
_cell_angle_alpha    90.0
_cell_angle_beta     90.0
_cell_angle_gamma    119.99998945596172

_space_group_name_H-M_alt    "P 1"
_space_group_IT_number       1

loop_
  _space_group_symop_operation_xyz
  'x, y, z'

loop_
  _atom_site_type_symbol
  _atom_site_label
  _atom_site_symmetry_multiplicity
  _atom_site_fract_x
  _atom_site_fract_y
  _atom_site_fract_z
  _atom_site_occupancy
  Li  Li1       1.0  0.5758618240244608  0.25763295699567834  0.011563013774459563  1.0000
  Li  Li2       1.0  0.22738581737574748  0.6520498889939521  0.26293549063957933  1.0000
  Li  Li3       1.0  0.6984874619558354  0.8837461521848411  0.47710101560498686  1.0000
  Li  Li4       1.0  0.13875307327672126  0.3919118761301732  0.3721236269523409  1.0000
  O   O1        1.0  0.5781197276829246  0.9696971976089692  0.9677178256651748  1.0000
  O   O2        1.0  0.058313042164797935  0.43105840005161866  0.43600236274956927  1.0000
  O   O3        1.0  0.6107810152612365  0.3841587964993778  0.9704300541039341  1.0000
  O   O4        1.0  0.1089446625354995  0.07950001597484757  0.8763474203243575  1.0000
