data_image0
_chemical_formula_structural       Li4O4
_chemical_formula_sum              "Li4 O4"
_cell_length_a       3.10263483
_cell_length_b       3.1026338289526874
_cell_length_c       7.56992946
_cell_angle_alpha    90.0
_cell_angle_beta     90.0
_cell_angle_gamma    119.99998945596172

_space_group_name_H-M_alt    "P 1"
_space_group_IT_number       1

loop_
  _space_group_symop_operation_xyz
  'x, y, z'

loop_
  _atom_site_type_symbol
  _atom_site_label
  _atom_site_symmetry_multiplicity
  _atom_site_fract_x
  _atom_site_fract_y
  _atom_site_fract_z
  _atom_site_occupancy
  Li  Li1       1.0  0.0008255815418092283  0.8126181212458619  0.6384260381973625  1.0000
  Li  Li2       1.0  0.26296106681125053  0.17371623561592742  0.27660815870087774  1.0000
  Li  Li3       1.0  0.40274772453451746  0.615972768602127  0.6260314453774178  1.0000
  Li  Li4       1.0  0.37220574383223237  0.9662589902191563  0.6813948774849337  1.0000
  O   O1        1.0  0.32007491733829596  0.5582627207280986  0.14710783319815945  1.0000
  O   O2        1.0  0.5893580152155451  0.5798200714616328  0.8953795469111689  1.0000
  O   O3        1.0  0.14524951352410298  0.9701477279352195  0.5725390425838626  1.0000
  O   O4        1.0  0.6011348274146968  0.9746018950470776  0.15700277418157427  1.0000
