data_image0
_chemical_formula_structural       Li4O4
_chemical_formula_sum              "Li4 O4"
_cell_length_a       3.10263483
_cell_length_b       3.1026338289526874
_cell_length_c       7.56992946
_cell_angle_alpha    90.0
_cell_angle_beta     90.0
_cell_angle_gamma    119.99998945596172

_space_group_name_H-M_alt    "P 1"
_space_group_IT_number       1

loop_
  _space_group_symop_operation_xyz
  'x, y, z'

loop_
  _atom_site_type_symbol
  _atom_site_label
  _atom_site_symmetry_multiplicity
  _atom_site_fract_x
  _atom_site_fract_y
  _atom_site_fract_z
  _atom_site_occupancy
  Li  Li1       1.0  0.2235382521717213  0.9673467404448459  0.3608425421420023  1.0000
  Li  Li2       1.0  0.5470250252039026  0.7335036319063057  0.024122174077504388  1.0000
  Li  Li3       1.0  0.9185351665262118  0.9638035498197155  0.15006299760072395  1.0000
  Li  Li4       1.0  0.902633501349996  0.6070890545482825  0.7986284556828531  1.0000
  O   O1        1.0  0.010147537154155728  0.03728691470240397  0.7400283501365434  1.0000
  O   O2        1.0  0.5190387940566445  0.5650937192595267  0.25272502973701094  1.0000
  O   O3        1.0  0.4237738881470605  0.4744259396856716  0.696821924954935  1.0000
  O   O4        1.0  0.46462894569299706  0.6384176307051384  0.6751298149058549  1.0000
