data_image0
_chemical_formula_structural       Li4O4
_chemical_formula_sum              "Li4 O4"
_cell_length_a       3.10263483
_cell_length_b       3.1026338289526874
_cell_length_c       7.56992946
_cell_angle_alpha    90.0
_cell_angle_beta     90.0
_cell_angle_gamma    119.99998945596172

_space_group_name_H-M_alt    "P 1"
_space_group_IT_number       1

loop_
  _space_group_symop_operation_xyz
  'x, y, z'

loop_
  _atom_site_type_symbol
  _atom_site_label
  _atom_site_symmetry_multiplicity
  _atom_site_fract_x
  _atom_site_fract_y
  _atom_site_fract_z
  _atom_site_occupancy
  Li  Li1       1.0  0.6449042109554313  0.68756843985188  0.4033408463011696  1.0000
  Li  Li2       1.0  0.15773796325399303  0.5609948717249011  0.45988755804791737  1.0000
  Li  Li3       1.0  0.7363494547919487  0.6965102103566352  0.12089290067382663  1.0000
  Li  Li4       1.0  0.8379021686209001  0.9972578044989344  0.6434285142734186  1.0000
  O   O1        1.0  0.7693533558268655  0.9354925244904244  0.582010098302046  1.0000
  O   O2        1.0  0.53166728427761  0.6315159351064583  0.787636842853896  1.0000
  O   O3        1.0  0.8806677308798285  0.08858825920042435  0.07508899822282555  1.0000
  O   O4        1.0  0.17869521101429342  0.07928158916944739  0.7054592720423516  1.0000
