data_image0
_chemical_formula_structural       Li4O4
_chemical_formula_sum              "Li4 O4"
_cell_length_a       3.10263483
_cell_length_b       3.1026338289526874
_cell_length_c       7.56992946
_cell_angle_alpha    90.0
_cell_angle_beta     90.0
_cell_angle_gamma    119.99998945596172

_space_group_name_H-M_alt    "P 1"
_space_group_IT_number       1

loop_
  _space_group_symop_operation_xyz
  'x, y, z'

loop_
  _atom_site_type_symbol
  _atom_site_label
  _atom_site_symmetry_multiplicity
  _atom_site_fract_x
  _atom_site_fract_y
  _atom_site_fract_z
  _atom_site_occupancy
  Li  Li1       1.0  0.27312953856385747  0.8948560273633106  0.24093259915519383  1.0000
  Li  Li2       1.0  0.9687973225587712  0.09109895701161008  0.73076848873459  1.0000
  Li  Li3       1.0  0.714712335063524  0.45866140846120373  0.04270506604567714  1.0000
  Li  Li4       1.0  0.49205752557476856  0.6255976053023957  0.9764806593857198  1.0000
  O   O1        1.0  0.2869835862503969  0.9564607336171349  0.7038584672413322  1.0000
  O   O2        1.0  0.7534179155646257  0.9093162865246711  0.5144881537251464  1.0000
  O   O3        1.0  0.19678511345948024  0.38019890966058423  0.024838658400238245  1.0000
  O   O4        1.0  0.23777934999844774  0.01251993325091405  0.02449650405279513  1.0000
