data_image0
_chemical_formula_structural       Li4O4
_chemical_formula_sum              "Li4 O4"
_cell_length_a       3.10263483
_cell_length_b       3.1026338289526874
_cell_length_c       7.56992946
_cell_angle_alpha    90.0
_cell_angle_beta     90.0
_cell_angle_gamma    119.99998945596172

_space_group_name_H-M_alt    "P 1"
_space_group_IT_number       1

loop_
  _space_group_symop_operation_xyz
  'x, y, z'

loop_
  _atom_site_type_symbol
  _atom_site_label
  _atom_site_symmetry_multiplicity
  _atom_site_fract_x
  _atom_site_fract_y
  _atom_site_fract_z
  _atom_site_occupancy
  Li  Li1       1.0  0.40437484272067437  0.5829988031050206  0.4940192604040057  1.0000
  Li  Li2       1.0  0.25083819696172327  0.7675817444660282  0.6641902561888742  1.0000
  Li  Li3       1.0  0.1601927133496588  0.19051405694517598  0.8442107504761722  1.0000
  Li  Li4       1.0  0.7367404828325448  0.2882812352295048  0.878423445710121  1.0000
  O   O1        1.0  0.865070834942216  0.19195650943834153  0.6840924113559197  1.0000
  O   O2        1.0  0.35313558448362414  0.35043607360067597  0.8034285247236213  1.0000
  O   O3        1.0  0.4791004958673817  0.16561028556261093  0.1696112404558292  1.0000
  O   O4        1.0  0.14948853849816146  0.35113890459250285  0.5038248818360103  1.0000
