data_image0
_chemical_formula_structural       Li4O4
_chemical_formula_sum              "Li4 O4"
_cell_length_a       3.10263483
_cell_length_b       3.1026338289526874
_cell_length_c       7.56992946
_cell_angle_alpha    90.0
_cell_angle_beta     90.0
_cell_angle_gamma    119.99998945596172

_space_group_name_H-M_alt    "P 1"
_space_group_IT_number       1

loop_
  _space_group_symop_operation_xyz
  'x, y, z'

loop_
  _atom_site_type_symbol
  _atom_site_label
  _atom_site_symmetry_multiplicity
  _atom_site_fract_x
  _atom_site_fract_y
  _atom_site_fract_z
  _atom_site_occupancy
  Li  Li1       1.0  0.7753015364832248  0.855580643267011  0.7505023908485668  1.0000
  Li  Li2       1.0  0.3289277915488924  0.010641611678437357  0.3038881617063396  1.0000
  Li  Li3       1.0  0.8356439640278239  0.40914385051372193  0.5596788492673141  1.0000
  Li  Li4       1.0  0.12301773280930206  0.8486930452959314  0.937421261966314  1.0000
  O   O1        1.0  0.5357468128201326  0.827953332705917  0.3240782762798986  1.0000
  O   O2        1.0  0.3172401285940367  0.8416882872610643  0.6130831329243733  1.0000
  O   O3        1.0  0.44063315915994394  0.534464385117591  0.7147970276005609  1.0000
  O   O4        1.0  0.4794600403522953  0.7467264861969198  0.4965067534161989  1.0000
