data_image0
_chemical_formula_structural       Li4O4
_chemical_formula_sum              "Li4 O4"
_cell_length_a       3.10263483
_cell_length_b       3.1026338289526874
_cell_length_c       7.56992946
_cell_angle_alpha    90.0
_cell_angle_beta     90.0
_cell_angle_gamma    119.99998945596172

_space_group_name_H-M_alt    "P 1"
_space_group_IT_number       1

loop_
  _space_group_symop_operation_xyz
  'x, y, z'

loop_
  _atom_site_type_symbol
  _atom_site_label
  _atom_site_symmetry_multiplicity
  _atom_site_fract_x
  _atom_site_fract_y
  _atom_site_fract_z
  _atom_site_occupancy
  Li  Li1       1.0  0.5228002493637405  0.9937791328207481  0.2146635790510345  1.0000
  Li  Li2       1.0  0.02614169270111688  0.07423633109770798  0.876644664861784  1.0000
  Li  Li3       1.0  0.09200237661526334  0.6376567589278253  0.1799159520139959  1.0000
  Li  Li4       1.0  0.23516743613864577  0.025445883345526  0.8098877814373795  1.0000
  O   O1        1.0  0.5005606723489819  0.8430097465989022  0.662384118494459  1.0000
  O   O2        1.0  0.8269814721751416  0.7184092994370488  0.8273991571668766  1.0000
  O   O3        1.0  0.43535521311086  0.3186313434550385  0.9697269843134784  1.0000
  O   O4        1.0  0.18013977246076962  0.8647232290270703  0.8105084642097076  1.0000
