data_image0
_chemical_formula_structural       Li4O4
_chemical_formula_sum              "Li4 O4"
_cell_length_a       3.10263483
_cell_length_b       3.1026338289526874
_cell_length_c       7.56992946
_cell_angle_alpha    90.0
_cell_angle_beta     90.0
_cell_angle_gamma    119.99998945596172

_space_group_name_H-M_alt    "P 1"
_space_group_IT_number       1

loop_
  _space_group_symop_operation_xyz
  'x, y, z'

loop_
  _atom_site_type_symbol
  _atom_site_label
  _atom_site_symmetry_multiplicity
  _atom_site_fract_x
  _atom_site_fract_y
  _atom_site_fract_z
  _atom_site_occupancy
  Li  Li1       1.0  0.94843255305274  0.9040934200118045  0.8511555291009145  1.0000
  Li  Li2       1.0  0.8276961764634905  0.3500081107152724  0.42097009221489623  1.0000
  Li  Li3       1.0  0.9402250400878458  0.12550352116343788  0.29015096230262305  1.0000
  Li  Li4       1.0  0.9904970270269899  0.8093361472755802  0.8438996153104981  1.0000
  O   O1        1.0  0.609742377636934  0.2209417837456229  0.34903464139863516  1.0000
  O   O2        1.0  0.18987830036043363  0.7537004400366811  0.8164263747332221  1.0000
  O   O3        1.0  0.6095156570216318  0.901491979276301  0.29356061371142417  1.0000
  O   O4        1.0  0.13557107529712198  0.26824826109300437  0.9573503160202925  1.0000
