data_image0
_chemical_formula_structural       Li4O4
_chemical_formula_sum              "Li4 O4"
_cell_length_a       3.10263483
_cell_length_b       3.1026338289526874
_cell_length_c       7.56992946
_cell_angle_alpha    90.0
_cell_angle_beta     90.0
_cell_angle_gamma    119.99998945596172

_space_group_name_H-M_alt    "P 1"
_space_group_IT_number       1

loop_
  _space_group_symop_operation_xyz
  'x, y, z'

loop_
  _atom_site_type_symbol
  _atom_site_label
  _atom_site_symmetry_multiplicity
  _atom_site_fract_x
  _atom_site_fract_y
  _atom_site_fract_z
  _atom_site_occupancy
  Li  Li1       1.0  0.6813485886707014  0.7606772762948424  0.5687940244376648  1.0000
  Li  Li2       1.0  0.04092451551630916  0.0600042763717854  0.1165265979903296  1.0000
  Li  Li3       1.0  0.9085591989446735  0.03831562157867552  0.12048325920696001  1.0000
  Li  Li4       1.0  0.9370770116048526  0.6379003460832955  0.9610107324165513  1.0000
  O   O1        1.0  0.7996727877201337  0.10416475057830965  0.9567825659070603  1.0000
  O   O2        1.0  0.6401967397341863  0.7056871119521375  0.9787152623806712  1.0000
  O   O3        1.0  0.42443135452293035  0.6490992671185047  0.44291974563486747  1.0000
  O   O4        1.0  0.16737318850796612  0.6307123560542749  0.1937912679330731  1.0000
