data_image0
_chemical_formula_structural       Li4O4
_chemical_formula_sum              "Li4 O4"
_cell_length_a       3.10263483
_cell_length_b       3.1026338289526874
_cell_length_c       7.56992946
_cell_angle_alpha    90.0
_cell_angle_beta     90.0
_cell_angle_gamma    119.99998945596172

_space_group_name_H-M_alt    "P 1"
_space_group_IT_number       1

loop_
  _space_group_symop_operation_xyz
  'x, y, z'

loop_
  _atom_site_type_symbol
  _atom_site_label
  _atom_site_symmetry_multiplicity
  _atom_site_fract_x
  _atom_site_fract_y
  _atom_site_fract_z
  _atom_site_occupancy
  Li  Li1       1.0  0.6759768033766278  0.20990762807666385  0.4412648868746274  1.0000
  Li  Li2       1.0  0.09890918755161238  0.40621925221316246  0.6969925258231697  1.0000
  Li  Li3       1.0  0.8494418114593714  0.47377059300795565  0.9994740334450967  1.0000
  Li  Li4       1.0  0.9430991518873668  0.7935052920733483  0.8682800690987307  1.0000
  O   O1        1.0  0.5873371264956688  0.08349120617862127  0.2983779779785145  1.0000
  O   O2        1.0  0.2762154080129875  0.8934470617647889  0.9645368568683566  1.0000
  O   O3        1.0  0.4666786404634493  0.6712304310841191  0.30576890860693595  1.0000
  O   O4        1.0  0.937856020971239  0.28161640791134346  0.42775670362830986  1.0000
