data_image0
_chemical_formula_structural       Li4O4
_chemical_formula_sum              "Li4 O4"
_cell_length_a       3.10263483
_cell_length_b       3.1026338289526874
_cell_length_c       7.56992946
_cell_angle_alpha    90.0
_cell_angle_beta     90.0
_cell_angle_gamma    119.99998945596172

_space_group_name_H-M_alt    "P 1"
_space_group_IT_number       1

loop_
  _space_group_symop_operation_xyz
  'x, y, z'

loop_
  _atom_site_type_symbol
  _atom_site_label
  _atom_site_symmetry_multiplicity
  _atom_site_fract_x
  _atom_site_fract_y
  _atom_site_fract_z
  _atom_site_occupancy
  Li  Li1       1.0  0.4528715810750583  0.06251774313385283  0.6126272953426906  1.0000
  Li  Li2       1.0  0.7869456643697248  0.7435471552651052  0.11450711694409366  1.0000
  Li  Li3       1.0  0.1350770190178281  0.6470364596244167  0.8584960895695086  1.0000
  Li  Li4       1.0  0.32443697029437146  0.488977855586505  0.6745191857564308  1.0000
  O   O1        1.0  0.6385105290412127  0.28807488572437734  0.1531629414387119  1.0000
  O   O2        1.0  0.6530954489844731  0.4491698505997874  0.4210739878402059  1.0000
  O   O3        1.0  0.2793046842338498  0.6438531180865965  0.6414161508595662  1.0000
  O   O4        1.0  0.6388554592271838  0.3705157303975426  0.5994309050439863  1.0000
