data_image0
_chemical_formula_structural       Li4O4
_chemical_formula_sum              "Li4 O4"
_cell_length_a       3.10263483
_cell_length_b       3.1026338289526874
_cell_length_c       7.56992946
_cell_angle_alpha    90.0
_cell_angle_beta     90.0
_cell_angle_gamma    119.99998945596172

_space_group_name_H-M_alt    "P 1"
_space_group_IT_number       1

loop_
  _space_group_symop_operation_xyz
  'x, y, z'

loop_
  _atom_site_type_symbol
  _atom_site_label
  _atom_site_symmetry_multiplicity
  _atom_site_fract_x
  _atom_site_fract_y
  _atom_site_fract_z
  _atom_site_occupancy
  Li  Li1       1.0  0.9938367133750603  0.37148194961622494  0.0051236917699455375  1.0000
  Li  Li2       1.0  0.1568356095337009  0.40590718494470934  0.4279618983556577  1.0000
  Li  Li3       1.0  0.16602515050911393  0.835295960519403  0.21516235954748875  1.0000
  Li  Li4       1.0  0.3412862147732767  0.555070371860289  0.7352514733576996  1.0000
  O   O1        1.0  0.3680105051005853  0.7503775597916231  0.2079366451024498  1.0000
  O   O2        1.0  0.30657470445081003  0.08439649842705421  0.45763967349526524  1.0000
  O   O3        1.0  0.2216615490437448  0.16470336796213303  0.4902844798217352  1.0000
  O   O4        1.0  0.9764401257764437  0.5585243969323095  0.703168264361274  1.0000
