data_image0
_chemical_formula_structural       Li4O4
_chemical_formula_sum              "Li4 O4"
_cell_length_a       3.10263483
_cell_length_b       3.1026338289526874
_cell_length_c       7.56992946
_cell_angle_alpha    90.0
_cell_angle_beta     90.0
_cell_angle_gamma    119.99998945596172

_space_group_name_H-M_alt    "P 1"
_space_group_IT_number       1

loop_
  _space_group_symop_operation_xyz
  'x, y, z'

loop_
  _atom_site_type_symbol
  _atom_site_label
  _atom_site_symmetry_multiplicity
  _atom_site_fract_x
  _atom_site_fract_y
  _atom_site_fract_z
  _atom_site_occupancy
  Li  Li1       1.0  0.05494921978336187  0.4422126630567007  0.4655032540596302  1.0000
  Li  Li2       1.0  0.6383109562059488  0.3036523851445594  0.8956049237746235  1.0000
  Li  Li3       1.0  0.44741791890993454  0.9687739832971687  0.29050229019453866  1.0000
  Li  Li4       1.0  0.7140045793393597  0.12157476746427243  0.7558435658899676  1.0000
  O   O1        1.0  0.2509278274555271  0.29047329873718297  0.1736677904084054  1.0000
  O   O2        1.0  0.9794436498299675  0.6752331605610138  0.41101894327478306  1.0000
  O   O3        1.0  0.7708877003790917  0.5462301686662627  0.7288123857013746  1.0000
  O   O4        1.0  0.4946768836590536  0.25754826739416714  0.4967903235405946  1.0000
