data_image0
_chemical_formula_structural       Li4O4
_chemical_formula_sum              "Li4 O4"
_cell_length_a       3.10263483
_cell_length_b       3.1026338289526874
_cell_length_c       7.56992946
_cell_angle_alpha    90.0
_cell_angle_beta     90.0
_cell_angle_gamma    119.99998945596172

_space_group_name_H-M_alt    "P 1"
_space_group_IT_number       1

loop_
  _space_group_symop_operation_xyz
  'x, y, z'

loop_
  _atom_site_type_symbol
  _atom_site_label
  _atom_site_symmetry_multiplicity
  _atom_site_fract_x
  _atom_site_fract_y
  _atom_site_fract_z
  _atom_site_occupancy
  Li  Li1       1.0  0.7090222826367985  0.744808076957824  0.14177301271363518  1.0000
  Li  Li2       1.0  0.7791798683213145  0.7891248173442023  0.45076988791774397  1.0000
  Li  Li3       1.0  0.1751068320440794  0.4577673308869521  0.48951201925254395  1.0000
  Li  Li4       1.0  0.4909540813337969  0.9642584427327421  0.9244377319657879  1.0000
  O   O1        1.0  0.6261863760012218  0.8503584183837187  0.49633742131397085  1.0000
  O   O2        1.0  0.40217984339167145  0.139087065773289  0.7935253634090316  1.0000
  O   O3        1.0  0.9861124452085761  0.28921051279469623  0.06475569523528191  1.0000
  O   O4        1.0  0.19673253123992396  0.7675069741383354  0.17957801028206966  1.0000
