data_image0
_chemical_formula_structural       Li4O4
_chemical_formula_sum              "Li4 O4"
_cell_length_a       3.10263483
_cell_length_b       3.1026338289526874
_cell_length_c       7.56992946
_cell_angle_alpha    90.0
_cell_angle_beta     90.0
_cell_angle_gamma    119.99998945596172

_space_group_name_H-M_alt    "P 1"
_space_group_IT_number       1

loop_
  _space_group_symop_operation_xyz
  'x, y, z'

loop_
  _atom_site_type_symbol
  _atom_site_label
  _atom_site_symmetry_multiplicity
  _atom_site_fract_x
  _atom_site_fract_y
  _atom_site_fract_z
  _atom_site_occupancy
  Li  Li1       1.0  0.7746476952442123  0.4423510943099771  0.3302279748832504  1.0000
  Li  Li2       1.0  0.3651394555813283  0.045422050214511955  0.44463688676993485  1.0000
  Li  Li3       1.0  0.018915638077373842  0.9524087169763984  0.47315416810431543  1.0000
  Li  Li4       1.0  0.4993291025838573  0.5441317489994191  0.2326511403361451  1.0000
  O   O1        1.0  0.5706298817512465  0.15661887916654393  0.2821455961443675  1.0000
  O   O2        1.0  0.22903210862071433  0.026650957518384644  0.3813086154173533  1.0000
  O   O3        1.0  0.7620920053685616  0.6571361702595766  0.32398489786198326  1.0000
  O   O4        1.0  0.09547032864725316  0.49392431098623035  0.1691404472894451  1.0000
