data_image0
_chemical_formula_structural       Li4O4
_chemical_formula_sum              "Li4 O4"
_cell_length_a       3.10263483
_cell_length_b       3.1026338289526874
_cell_length_c       7.56992946
_cell_angle_alpha    90.0
_cell_angle_beta     90.0
_cell_angle_gamma    119.99998945596172

_space_group_name_H-M_alt    "P 1"
_space_group_IT_number       1

loop_
  _space_group_symop_operation_xyz
  'x, y, z'

loop_
  _atom_site_type_symbol
  _atom_site_label
  _atom_site_symmetry_multiplicity
  _atom_site_fract_x
  _atom_site_fract_y
  _atom_site_fract_z
  _atom_site_occupancy
  Li  Li1       1.0  0.7941383221418903  0.7142909557377806  0.9029627748688043  1.0000
  Li  Li2       1.0  0.5299211242007402  0.12146980265899288  0.22483376803666744  1.0000
  Li  Li3       1.0  0.2501573308036882  0.28461888255250756  0.23921693308112424  1.0000
  Li  Li4       1.0  0.5330639390577261  0.2711701953930685  0.29618080052060236  1.0000
  O   O1        1.0  0.7739032508136177  0.531739585544095  0.6866874300735581  1.0000
  O   O2        1.0  0.44798319037381873  0.6100551636339162  0.3086065974554728  1.0000
  O   O3        1.0  0.5573769173451808  0.7716612077294158  0.29257208385974565  1.0000
  O   O4        1.0  0.09159208249764483  0.1682363887185332  0.285164470965924  1.0000
