data_image0
_chemical_formula_structural       Li4O4
_chemical_formula_sum              "Li4 O4"
_cell_length_a       3.10263483
_cell_length_b       3.1026338289526874
_cell_length_c       7.56992946
_cell_angle_alpha    90.0
_cell_angle_beta     90.0
_cell_angle_gamma    119.99998945596172

_space_group_name_H-M_alt    "P 1"
_space_group_IT_number       1

loop_
  _space_group_symop_operation_xyz
  'x, y, z'

loop_
  _atom_site_type_symbol
  _atom_site_label
  _atom_site_symmetry_multiplicity
  _atom_site_fract_x
  _atom_site_fract_y
  _atom_site_fract_z
  _atom_site_occupancy
  Li  Li1       1.0  0.6242669977385873  0.9214918520374908  0.6209761129257458  1.0000
  Li  Li2       1.0  0.9288356376436866  0.9790029546032599  0.30513363592563536  1.0000
  Li  Li3       1.0  0.4162562784675856  0.672122023675584  0.039041719469420144  1.0000
  Li  Li4       1.0  0.5678248959493715  0.5752634112249666  0.9536547940477647  1.0000
  O   O1        1.0  0.14230808968768827  0.361872047355547  0.6282470792468438  1.0000
  O   O2        1.0  0.3863086764082624  0.0395087837968191  0.8189200797642897  1.0000
  O   O3        1.0  0.36701650622444504  0.5642476549392192  0.30872843902383096  1.0000
  O   O4        1.0  0.22681790291798976  0.2532794402946621  0.5264878047345292  1.0000
