data_image0
_chemical_formula_structural       Li4O4
_chemical_formula_sum              "Li4 O4"
_cell_length_a       3.10263483
_cell_length_b       3.1026338289526874
_cell_length_c       7.56992946
_cell_angle_alpha    90.0
_cell_angle_beta     90.0
_cell_angle_gamma    119.99998945596172

_space_group_name_H-M_alt    "P 1"
_space_group_IT_number       1

loop_
  _space_group_symop_operation_xyz
  'x, y, z'

loop_
  _atom_site_type_symbol
  _atom_site_label
  _atom_site_symmetry_multiplicity
  _atom_site_fract_x
  _atom_site_fract_y
  _atom_site_fract_z
  _atom_site_occupancy
  Li  Li1       1.0  0.9826193755473511  0.725838218276806  0.03913104506851184  1.0000
  Li  Li2       1.0  0.9476985623308423  0.4798292559617643  0.004468140118031982  1.0000
  Li  Li3       1.0  0.023739948605161487  0.2897989719644123  0.888541048847161  1.0000
  Li  Li4       1.0  0.34909109258052873  0.27221967059768204  0.13335813862574497  1.0000
  O   O1        1.0  0.7729680661717175  0.21986372110328034  0.310019965268689  1.0000
  O   O2        1.0  0.27059500592765673  0.024905023999608034  0.3008965475124228  1.0000
  O   O3        1.0  0.7267293993023245  0.5520885381823888  0.027610628524048053  1.0000
  O   O4        1.0  0.7681614805638972  0.9028244339099611  0.6271349602500429  1.0000
