data_image0
_chemical_formula_structural       Li4O4
_chemical_formula_sum              "Li4 O4"
_cell_length_a       3.10263483
_cell_length_b       3.1026338289526874
_cell_length_c       7.56992946
_cell_angle_alpha    90.0
_cell_angle_beta     90.0
_cell_angle_gamma    119.99998945596172

_space_group_name_H-M_alt    "P 1"
_space_group_IT_number       1

loop_
  _space_group_symop_operation_xyz
  'x, y, z'

loop_
  _atom_site_type_symbol
  _atom_site_label
  _atom_site_symmetry_multiplicity
  _atom_site_fract_x
  _atom_site_fract_y
  _atom_site_fract_z
  _atom_site_occupancy
  Li  Li1       1.0  0.1420868861002873  0.18035415665681853  0.04765881038568409  1.0000
  Li  Li2       1.0  0.4214719547835273  0.9689695310904227  0.8928352530762371  1.0000
  Li  Li3       1.0  0.3576794502738885  0.09170145949474318  0.7859768910526164  1.0000
  Li  Li4       1.0  0.8785471054207719  0.8374817936425245  0.8469142004021144  1.0000
  O   O1        1.0  0.42100557175035647  0.8430180232780344  0.81859455423238  1.0000
  O   O2        1.0  0.4403385028842308  0.8690427247412273  0.2525790691411878  1.0000
  O   O3        1.0  0.9291043812458497  0.2663838255854003  0.3370826571219254  1.0000
  O   O4        1.0  0.3326710061074021  0.8525131637238665  0.30443974113234873  1.0000
