data_image0
_chemical_formula_structural       Li4O4
_chemical_formula_sum              "Li4 O4"
_cell_length_a       3.10263483
_cell_length_b       3.1026338289526874
_cell_length_c       7.56992946
_cell_angle_alpha    90.0
_cell_angle_beta     90.0
_cell_angle_gamma    119.99998945596172

_space_group_name_H-M_alt    "P 1"
_space_group_IT_number       1

loop_
  _space_group_symop_operation_xyz
  'x, y, z'

loop_
  _atom_site_type_symbol
  _atom_site_label
  _atom_site_symmetry_multiplicity
  _atom_site_fract_x
  _atom_site_fract_y
  _atom_site_fract_z
  _atom_site_occupancy
  Li  Li1       1.0  0.976962133679347  0.7132348148610195  0.5803040743561496  1.0000
  Li  Li2       1.0  0.4730543740135431  0.5672571266645434  0.2890976372372336  1.0000
  Li  Li3       1.0  0.4447439863957925  0.506621531149996  0.4796533316962126  1.0000
  Li  Li4       1.0  0.8373480021399615  0.8871327512881919  0.852818730107856  1.0000
  O   O1        1.0  0.8625980091063541  0.8215817876731109  0.9212694765278542  1.0000
  O   O2        1.0  0.6607331160382444  0.8326493946672144  0.39393343609298626  1.0000
  O   O3        1.0  0.7329198148210239  0.9213579403875682  0.6433815058140766  1.0000
  O   O4        1.0  0.43456823059524297  0.5298460333076918  0.031936463716940366  1.0000
