data_image0
_chemical_formula_structural       Li4O4
_chemical_formula_sum              "Li4 O4"
_cell_length_a       3.10263483
_cell_length_b       3.1026338289526874
_cell_length_c       7.56992946
_cell_angle_alpha    90.0
_cell_angle_beta     90.0
_cell_angle_gamma    119.99998945596172

_space_group_name_H-M_alt    "P 1"
_space_group_IT_number       1

loop_
  _space_group_symop_operation_xyz
  'x, y, z'

loop_
  _atom_site_type_symbol
  _atom_site_label
  _atom_site_symmetry_multiplicity
  _atom_site_fract_x
  _atom_site_fract_y
  _atom_site_fract_z
  _atom_site_occupancy
  Li  Li1       1.0  0.2643259256018471  0.7863262334829955  0.8289283456126952  1.0000
  Li  Li2       1.0  0.7079620082297993  0.71809328243544  0.6228769928413698  1.0000
  Li  Li3       1.0  0.5331614423815765  0.09441770469602062  0.3893163829658608  1.0000
  Li  Li4       1.0  0.4376658698380176  0.7944511019984262  0.06657100087357648  1.0000
  O   O1        1.0  0.4377626668221879  0.2014417280238554  0.276534342987631  1.0000
  O   O2        1.0  0.7485668655671205  0.3457141813185558  0.7765392174780494  1.0000
  O   O3        1.0  0.8529020521167405  0.157260165767683  0.8732649262250369  1.0000
  O   O4        1.0  0.3272657941919448  0.011024381593191301  0.12351247714005531  1.0000
