data_image0
_chemical_formula_structural       Li4O4
_chemical_formula_sum              "Li4 O4"
_cell_length_a       3.10263483
_cell_length_b       3.1026338289526874
_cell_length_c       7.56992946
_cell_angle_alpha    90.0
_cell_angle_beta     90.0
_cell_angle_gamma    119.99998945596172

_space_group_name_H-M_alt    "P 1"
_space_group_IT_number       1

loop_
  _space_group_symop_operation_xyz
  'x, y, z'

loop_
  _atom_site_type_symbol
  _atom_site_label
  _atom_site_symmetry_multiplicity
  _atom_site_fract_x
  _atom_site_fract_y
  _atom_site_fract_z
  _atom_site_occupancy
  Li  Li1       1.0  0.4958206701734795  0.23648706368990702  0.5631415062197007  1.0000
  Li  Li2       1.0  0.20465008107150595  0.5816155464822828  0.407016899217826  1.0000
  Li  Li3       1.0  0.05227530839580652  0.02333477347545454  0.08457416381451388  1.0000
  Li  Li4       1.0  0.19522046422270023  0.2489427405297917  0.12358261688327499  1.0000
  O   O1        1.0  0.6416917766206822  0.42000129162260613  0.45439383494376884  1.0000
  O   O2        1.0  0.03681751341289896  0.4421465780926468  0.2284496027894889  1.0000
  O   O3        1.0  0.782731941969729  0.789377662870784  0.772189259006641  1.0000
  O   O4        1.0  0.9372387516213685  0.8116197390693962  0.4867169165243208  1.0000
