data_image0
_chemical_formula_structural       Li4O4
_chemical_formula_sum              "Li4 O4"
_cell_length_a       3.10263483
_cell_length_b       3.1026338289526874
_cell_length_c       7.56992946
_cell_angle_alpha    90.0
_cell_angle_beta     90.0
_cell_angle_gamma    119.99998945596172

_space_group_name_H-M_alt    "P 1"
_space_group_IT_number       1

loop_
  _space_group_symop_operation_xyz
  'x, y, z'

loop_
  _atom_site_type_symbol
  _atom_site_label
  _atom_site_symmetry_multiplicity
  _atom_site_fract_x
  _atom_site_fract_y
  _atom_site_fract_z
  _atom_site_occupancy
  Li  Li1       1.0  0.2869312307717107  0.7601919200186273  0.806645936747131  1.0000
  Li  Li2       1.0  0.970150326785415  0.5492565500330784  0.9198279797826814  1.0000
  Li  Li3       1.0  0.481617307793357  0.6036671480723612  0.9936316860852372  1.0000
  Li  Li4       1.0  0.7706806572540756  0.45060675602073275  0.42757513487044285  1.0000
  O   O1        1.0  0.18597859652265925  0.22022301360478735  0.22165682608518011  1.0000
  O   O2        1.0  0.5836915432950605  0.1291362287890081  0.8645309564926364  1.0000
  O   O3        1.0  0.38936387041137976  0.8704821070503392  0.9643413977644002  1.0000
  O   O4        1.0  0.288438145289845  0.22694673798726228  0.426506411164997  1.0000
