data_image0
_chemical_formula_structural       Li4O4
_chemical_formula_sum              "Li4 O4"
_cell_length_a       3.10263483
_cell_length_b       3.1026338289526874
_cell_length_c       7.56992946
_cell_angle_alpha    90.0
_cell_angle_beta     90.0
_cell_angle_gamma    119.99998945596172

_space_group_name_H-M_alt    "P 1"
_space_group_IT_number       1

loop_
  _space_group_symop_operation_xyz
  'x, y, z'

loop_
  _atom_site_type_symbol
  _atom_site_label
  _atom_site_symmetry_multiplicity
  _atom_site_fract_x
  _atom_site_fract_y
  _atom_site_fract_z
  _atom_site_occupancy
  Li  Li1       1.0  0.5242408717931042  0.4249143971894398  0.1013252890499956  1.0000
  Li  Li2       1.0  0.9961553716356093  0.8152504881993963  0.3593248882058635  1.0000
  Li  Li3       1.0  0.5802728472333456  0.5517964351122515  0.6114616316455432  1.0000
  Li  Li4       1.0  0.24032444676034004  0.07339879373474645  0.3802126662414391  1.0000
  O   O1        1.0  0.14946046335155216  0.5690439196755435  0.6981169664711651  1.0000
  O   O2        1.0  0.9808771208926998  0.8441912421470477  0.496288211599456  1.0000
  O   O3        1.0  0.951346278814313  0.5212322137300553  0.9473895493713265  1.0000
  O   O4        1.0  0.42296917499589526  0.7984833272065988  0.20953525900439018  1.0000
