data_image0
_chemical_formula_structural       Li4O4
_chemical_formula_sum              "Li4 O4"
_cell_length_a       3.10263483
_cell_length_b       3.1026338289526874
_cell_length_c       7.56992946
_cell_angle_alpha    90.0
_cell_angle_beta     90.0
_cell_angle_gamma    119.99998945596172

_space_group_name_H-M_alt    "P 1"
_space_group_IT_number       1

loop_
  _space_group_symop_operation_xyz
  'x, y, z'

loop_
  _atom_site_type_symbol
  _atom_site_label
  _atom_site_symmetry_multiplicity
  _atom_site_fract_x
  _atom_site_fract_y
  _atom_site_fract_z
  _atom_site_occupancy
  Li  Li1       1.0  0.3563201193631471  0.34465777064596637  0.8611778252849831  1.0000
  Li  Li2       1.0  0.2967517090980323  0.9044043990162294  0.6860870406371689  1.0000
  Li  Li3       1.0  0.06502162159329572  0.7127000346018235  0.18709455147543252  1.0000
  Li  Li4       1.0  0.7294154929932049  0.598292854761425  0.002326689528810988  1.0000
  O   O1        1.0  0.7176925011915074  0.07044976360604949  0.5733459084909498  1.0000
  O   O2        1.0  0.6445891851478507  0.25442375884987456  0.8071104974093899  1.0000
  O   O3        1.0  0.4770677325709869  0.31463074703501803  0.20159050415013624  1.0000
  O   O4        1.0  0.7791122633080985  0.7042041989215839  0.7279681995985605  1.0000
