data_image0
_chemical_formula_structural       Li4O4
_chemical_formula_sum              "Li4 O4"
_cell_length_a       3.10263483
_cell_length_b       3.1026338289526874
_cell_length_c       7.56992946
_cell_angle_alpha    90.0
_cell_angle_beta     90.0
_cell_angle_gamma    119.99998945596172

_space_group_name_H-M_alt    "P 1"
_space_group_IT_number       1

loop_
  _space_group_symop_operation_xyz
  'x, y, z'

loop_
  _atom_site_type_symbol
  _atom_site_label
  _atom_site_symmetry_multiplicity
  _atom_site_fract_x
  _atom_site_fract_y
  _atom_site_fract_z
  _atom_site_occupancy
  Li  Li1       1.0  0.8823977867939448  0.1793090744218233  0.5994057787979479  1.0000
  Li  Li2       1.0  0.8476080887007811  0.08379858510792815  0.7562407041615344  1.0000
  Li  Li3       1.0  0.23282971423427057  0.05482928613569982  0.31364161608935603  1.0000
  Li  Li4       1.0  0.9947809410086279  0.12424203340481199  0.29897158973570015  1.0000
  O   O1        1.0  0.7809769965553848  0.9980839945973976  0.4308131187012627  1.0000
  O   O2        1.0  0.4823327061869378  0.9319020079689295  0.24124044933629563  1.0000
  O   O3        1.0  0.26826710168882073  0.3330197405472101  0.9821376675095621  1.0000
  O   O4        1.0  0.170508594492496  0.013785632053085806  0.5819459040342299  1.0000
