data_image0
_chemical_formula_structural       Li4O4
_chemical_formula_sum              "Li4 O4"
_cell_length_a       3.10263483
_cell_length_b       3.1026338289526874
_cell_length_c       7.56992946
_cell_angle_alpha    90.0
_cell_angle_beta     90.0
_cell_angle_gamma    119.99998945596172

_space_group_name_H-M_alt    "P 1"
_space_group_IT_number       1

loop_
  _space_group_symop_operation_xyz
  'x, y, z'

loop_
  _atom_site_type_symbol
  _atom_site_label
  _atom_site_symmetry_multiplicity
  _atom_site_fract_x
  _atom_site_fract_y
  _atom_site_fract_z
  _atom_site_occupancy
  Li  Li1       1.0  0.9652621347783956  0.5677437173215623  0.9411029934182054  1.0000
  Li  Li2       1.0  0.10819767994667018  0.23067793051146168  0.030580679904062436  1.0000
  Li  Li3       1.0  0.5430259129612978  0.5637298382294063  0.48864113673668186  1.0000
  Li  Li4       1.0  0.41507753805642267  0.18912662119586798  0.5292415936341364  1.0000
  O   O1        1.0  0.4786076740352456  0.5901235934466911  0.0638827390697756  1.0000
  O   O2        1.0  0.2151182339170532  0.4672100897307274  0.9202735423060062  1.0000
  O   O3        1.0  0.45737251916496646  0.9355452276309428  0.3636644338189612  1.0000
  O   O4        1.0  0.4720188174121738  0.969120967759693  0.3907097030136306  1.0000
