data_image0
_chemical_formula_structural       Li4O4
_chemical_formula_sum              "Li4 O4"
_cell_length_a       3.10263483
_cell_length_b       3.1026338289526874
_cell_length_c       7.56992946
_cell_angle_alpha    90.0
_cell_angle_beta     90.0
_cell_angle_gamma    119.99998945596172

_space_group_name_H-M_alt    "P 1"
_space_group_IT_number       1

loop_
  _space_group_symop_operation_xyz
  'x, y, z'

loop_
  _atom_site_type_symbol
  _atom_site_label
  _atom_site_symmetry_multiplicity
  _atom_site_fract_x
  _atom_site_fract_y
  _atom_site_fract_z
  _atom_site_occupancy
  Li  Li1       1.0  0.35912258632842997  0.11686118463340733  0.6095971051840863  1.0000
  Li  Li2       1.0  0.2977581079805418  0.6160707150392852  0.4693335647027759  1.0000
  Li  Li3       1.0  0.151409154780751  0.7019574418041401  0.6751384314456672  1.0000
  Li  Li4       1.0  0.6134695614335754  0.42478640620830277  0.3295545827114945  1.0000
  O   O1        1.0  0.2506872505049458  0.16643477002249263  0.09565369127650314  1.0000
  O   O2        1.0  0.9306144622835184  0.11345864005478035  0.39214036897926974  1.0000
  O   O3        1.0  0.8835980164113053  0.9167776645430195  0.29342210844750716  1.0000
  O   O4        1.0  0.036046207644524486  0.015904768897200938  0.6031278838118679  1.0000
