data_image0
_chemical_formula_structural       Li4O4
_chemical_formula_sum              "Li4 O4"
_cell_length_a       3.10263483
_cell_length_b       3.1026338289526874
_cell_length_c       7.56992946
_cell_angle_alpha    90.0
_cell_angle_beta     90.0
_cell_angle_gamma    119.99998945596172

_space_group_name_H-M_alt    "P 1"
_space_group_IT_number       1

loop_
  _space_group_symop_operation_xyz
  'x, y, z'

loop_
  _atom_site_type_symbol
  _atom_site_label
  _atom_site_symmetry_multiplicity
  _atom_site_fract_x
  _atom_site_fract_y
  _atom_site_fract_z
  _atom_site_occupancy
  Li  Li1       1.0  0.6213783686073135  0.6250363989022247  0.01996902933415612  1.0000
  Li  Li2       1.0  0.4319560407716381  0.2241724509962637  0.1518028827805864  1.0000
  Li  Li3       1.0  0.3371440505377876  0.7239594235698377  0.4192171532765627  1.0000
  Li  Li4       1.0  0.06930232436258166  0.6033186801730039  0.24851826515656583  1.0000
  O   O1        1.0  0.48079113416976327  0.5696553961877484  0.22805532234243486  1.0000
  O   O2        1.0  0.31632812530013155  0.9444549795584436  0.39392740987226915  1.0000
  O   O3        1.0  0.527580604141594  0.608185911926924  0.04945392958551764  1.0000
  O   O4        1.0  0.8454759387052828  0.13608128795793561  0.0750843058683941  1.0000
