data_image0
_chemical_formula_structural       Li4O4
_chemical_formula_sum              "Li4 O4"
_cell_length_a       3.10263483
_cell_length_b       3.1026338289526874
_cell_length_c       7.56992946
_cell_angle_alpha    90.0
_cell_angle_beta     90.0
_cell_angle_gamma    119.99998945596172

_space_group_name_H-M_alt    "P 1"
_space_group_IT_number       1

loop_
  _space_group_symop_operation_xyz
  'x, y, z'

loop_
  _atom_site_type_symbol
  _atom_site_label
  _atom_site_symmetry_multiplicity
  _atom_site_fract_x
  _atom_site_fract_y
  _atom_site_fract_z
  _atom_site_occupancy
  Li  Li1       1.0  0.31270028094301505  0.7203204503682983  0.6395346924151042  1.0000
  Li  Li2       1.0  0.5484547179090669  0.15564610913527588  0.3263635708644017  1.0000
  Li  Li3       1.0  0.12398919298711064  0.756675628139476  0.20214256786913154  1.0000
  Li  Li4       1.0  0.9345144624753488  0.33682751753286766  0.05195982972096047  1.0000
  O   O1        1.0  0.4690186268911738  0.7865499265040761  0.9324951077139332  1.0000
  O   O2        1.0  0.5269511071249013  0.7544838627874526  0.6700208280171793  1.0000
  O   O3        1.0  0.5228695629715929  0.982677416726597  0.975197510141264  1.0000
  O   O4        1.0  0.514508789255995  0.4732914278224314  0.5661909780265866  1.0000
