data_image0
_chemical_formula_structural       Li4O4
_chemical_formula_sum              "Li4 O4"
_cell_length_a       3.10263483
_cell_length_b       3.1026338289526874
_cell_length_c       7.56992946
_cell_angle_alpha    90.0
_cell_angle_beta     90.0
_cell_angle_gamma    119.99998945596172

_space_group_name_H-M_alt    "P 1"
_space_group_IT_number       1

loop_
  _space_group_symop_operation_xyz
  'x, y, z'

loop_
  _atom_site_type_symbol
  _atom_site_label
  _atom_site_symmetry_multiplicity
  _atom_site_fract_x
  _atom_site_fract_y
  _atom_site_fract_z
  _atom_site_occupancy
  Li  Li1       1.0  0.35463269576737844  0.016046352596958968  0.9599722733253309  1.0000
  Li  Li2       1.0  0.7015367900863225  0.9887675884094449  0.26896868851815015  1.0000
  Li  Li3       1.0  0.19786887400127284  0.19430717649045448  0.4421713002813803  1.0000
  Li  Li4       1.0  0.9091623198026468  0.033404940976055286  0.8754866720232997  1.0000
  O   O1        1.0  0.4902305056162177  0.03644019892313466  0.07524023212547704  1.0000
  O   O2        1.0  0.5180309906600513  0.4538076351017537  0.26214459747190944  1.0000
  O   O3        1.0  0.24038550312626228  0.2642048743800611  0.3743079144629249  1.0000
  O   O4        1.0  0.7180973878995331  0.06635671130820242  0.12046097088007635  1.0000
