data_image0
_chemical_formula_structural       Li4O4
_chemical_formula_sum              "Li4 O4"
_cell_length_a       3.10263483
_cell_length_b       3.1026338289526874
_cell_length_c       7.56992946
_cell_angle_alpha    90.0
_cell_angle_beta     90.0
_cell_angle_gamma    119.99998945596172

_space_group_name_H-M_alt    "P 1"
_space_group_IT_number       1

loop_
  _space_group_symop_operation_xyz
  'x, y, z'

loop_
  _atom_site_type_symbol
  _atom_site_label
  _atom_site_symmetry_multiplicity
  _atom_site_fract_x
  _atom_site_fract_y
  _atom_site_fract_z
  _atom_site_occupancy
  Li  Li1       1.0  0.9350799301676531  0.8074835475220539  0.3490951728663738  1.0000
  Li  Li2       1.0  0.9463117490301798  0.3837540623312705  0.34374302075729446  1.0000
  Li  Li3       1.0  0.696603523360622  0.12278512069099179  0.4985381293240536  1.0000
  Li  Li4       1.0  0.5918150234867028  0.858184920279534  0.7094833603337021  1.0000
  O   O1        1.0  0.2857124419561323  0.8805443032106508  0.7739323128085047  1.0000
  O   O2        1.0  0.743072752220062  0.39133834815803326  0.7482896541873565  1.0000
  O   O3        1.0  0.4436551067211596  0.61611723777904  0.47405623051657886  1.0000
  O   O4        1.0  0.8996483674505242  0.5367784170784446  0.2749308994108888  1.0000
