data_image0
_chemical_formula_structural       Li4O4
_chemical_formula_sum              "Li4 O4"
_cell_length_a       3.10263483
_cell_length_b       3.1026338289526874
_cell_length_c       7.56992946
_cell_angle_alpha    90.0
_cell_angle_beta     90.0
_cell_angle_gamma    119.99998945596172

_space_group_name_H-M_alt    "P 1"
_space_group_IT_number       1

loop_
  _space_group_symop_operation_xyz
  'x, y, z'

loop_
  _atom_site_type_symbol
  _atom_site_label
  _atom_site_symmetry_multiplicity
  _atom_site_fract_x
  _atom_site_fract_y
  _atom_site_fract_z
  _atom_site_occupancy
  Li  Li1       1.0  0.04877982682934601  0.5234343808005946  0.5936783316454495  1.0000
  Li  Li2       1.0  0.2007462141916676  0.22786266318092885  0.07716276912102416  1.0000
  Li  Li3       1.0  0.3036665941613137  0.2555418830319667  0.06318687244917953  1.0000
  Li  Li4       1.0  0.9918550204365175  0.9756786279230028  0.6408858356310922  1.0000
  O   O1        1.0  0.09560144709337237  0.9339716435753118  0.7890249121256758  1.0000
  O   O2        1.0  0.33598799604119733  0.6887253225726653  0.1429498629710011  1.0000
  O   O3        1.0  0.9966442997580458  0.15866256881128393  0.19386657426857568  1.0000
  O   O4        1.0  0.23431940285493624  0.8928691051996935  0.506804720300142  1.0000
