data_image0
_chemical_formula_structural       Li4O4
_chemical_formula_sum              "Li4 O4"
_cell_length_a       3.10263483
_cell_length_b       3.1026338289526874
_cell_length_c       7.56992946
_cell_angle_alpha    90.0
_cell_angle_beta     90.0
_cell_angle_gamma    119.99998945596172

_space_group_name_H-M_alt    "P 1"
_space_group_IT_number       1

loop_
  _space_group_symop_operation_xyz
  'x, y, z'

loop_
  _atom_site_type_symbol
  _atom_site_label
  _atom_site_symmetry_multiplicity
  _atom_site_fract_x
  _atom_site_fract_y
  _atom_site_fract_z
  _atom_site_occupancy
  Li  Li1       1.0  0.31734626469683747  0.5770917324019109  0.9783135510652556  1.0000
  Li  Li2       1.0  0.0019024613439455607  0.831705578423648  0.7411710003624492  1.0000
  Li  Li3       1.0  0.6324268842706786  0.21255929524384953  0.9494609775870453  1.0000
  Li  Li4       1.0  0.8071873102276399  0.8435520131652687  0.3538498209951415  1.0000
  O   O1        1.0  0.8278251466107811  0.8700031378173776  0.01926845545219713  1.0000
  O   O2        1.0  0.9057812905749785  0.24056762730781145  0.5677957966620575  1.0000
  O   O3        1.0  0.6687367097080568  0.018882664211893996  0.3290835204207525  1.0000
  O   O4        1.0  0.5080620432340552  0.012329395845078306  0.9343531465652735  1.0000
