data_image0
_chemical_formula_structural       Li4O4
_chemical_formula_sum              "Li4 O4"
_cell_length_a       3.10263483
_cell_length_b       3.1026338289526874
_cell_length_c       7.56992946
_cell_angle_alpha    90.0
_cell_angle_beta     90.0
_cell_angle_gamma    119.99998945596172

_space_group_name_H-M_alt    "P 1"
_space_group_IT_number       1

loop_
  _space_group_symop_operation_xyz
  'x, y, z'

loop_
  _atom_site_type_symbol
  _atom_site_label
  _atom_site_symmetry_multiplicity
  _atom_site_fract_x
  _atom_site_fract_y
  _atom_site_fract_z
  _atom_site_occupancy
  Li  Li1       1.0  0.7584842833713736  0.6863472078190824  0.2947663229954358  1.0000
  Li  Li2       1.0  0.5102491330862051  0.3725772389137916  0.5168877496287934  1.0000
  Li  Li3       1.0  0.4344434389322771  0.09924075265006849  0.7818558191430682  1.0000
  Li  Li4       1.0  0.5737577734893762  0.3984820481543352  0.35569410224019293  1.0000
  O   O1        1.0  0.4840071164078381  0.21735604367310657  0.8540634698959089  1.0000
  O   O2        1.0  0.5451253967245293  0.7079403358886083  0.9648881785648697  1.0000
  O   O3        1.0  0.15806122701432912  0.3887140937443654  0.6695507337187792  1.0000
  O   O4        1.0  0.7260126699378446  0.34608753845495244  0.7771003496261359  1.0000
