data_image0
_chemical_formula_structural       Li4O4
_chemical_formula_sum              "Li4 O4"
_cell_length_a       3.10263483
_cell_length_b       3.1026338289526874
_cell_length_c       7.56992946
_cell_angle_alpha    90.0
_cell_angle_beta     90.0
_cell_angle_gamma    119.99998945596172

_space_group_name_H-M_alt    "P 1"
_space_group_IT_number       1

loop_
  _space_group_symop_operation_xyz
  'x, y, z'

loop_
  _atom_site_type_symbol
  _atom_site_label
  _atom_site_symmetry_multiplicity
  _atom_site_fract_x
  _atom_site_fract_y
  _atom_site_fract_z
  _atom_site_occupancy
  Li  Li1       1.0  0.07016621621069419  0.5099679042927221  0.7302947780165638  1.0000
  Li  Li2       1.0  0.6754465303122288  0.3194337171185013  0.9109545563340387  1.0000
  Li  Li3       1.0  0.775643437363724  0.5739190438886084  0.8644155308598371  1.0000
  Li  Li4       1.0  0.6505758830619985  0.2145335959122292  0.1172244034133314  1.0000
  O   O1        1.0  0.20335278524134281  0.4584960464932948  0.7120490598687157  1.0000
  O   O2        1.0  0.4326940349960964  0.06709848485319725  0.8947281032953249  1.0000
  O   O3        1.0  0.8890995742194576  0.5297739977180065  0.07156652159348198  1.0000
  O   O4        1.0  0.7132151598137568  0.9475042781978464  0.9342333389934661  1.0000
