data_image0
_chemical_formula_structural       Li4O4
_chemical_formula_sum              "Li4 O4"
_cell_length_a       3.10263483
_cell_length_b       3.1026338289526874
_cell_length_c       7.56992946
_cell_angle_alpha    90.0
_cell_angle_beta     90.0
_cell_angle_gamma    119.99998945596172

_space_group_name_H-M_alt    "P 1"
_space_group_IT_number       1

loop_
  _space_group_symop_operation_xyz
  'x, y, z'

loop_
  _atom_site_type_symbol
  _atom_site_label
  _atom_site_symmetry_multiplicity
  _atom_site_fract_x
  _atom_site_fract_y
  _atom_site_fract_z
  _atom_site_occupancy
  Li  Li1       1.0  0.42142824252073297  0.09741516059649769  0.0950242034406763  1.0000
  Li  Li2       1.0  0.8423721171344454  0.7368338452785963  0.7907590730321736  1.0000
  Li  Li3       1.0  0.5883790011112069  0.5199624677702985  0.3948992293123439  1.0000
  Li  Li4       1.0  0.9939000863290213  0.933041087374746  0.15399672581557944  1.0000
  O   O1        1.0  0.6026222832829191  0.3845217127557756  0.9779108592231971  1.0000
  O   O2        1.0  0.009320220206816998  0.29089052368746593  0.4268393258240337  1.0000
  O   O3        1.0  0.7509129924688551  0.5528874853100127  0.9997953776106314  1.0000
  O   O4        1.0  0.688979222499146  0.49866394191086094  0.1692591343039478  1.0000
