data_image0
_chemical_formula_structural       Li4O4
_chemical_formula_sum              "Li4 O4"
_cell_length_a       3.10263483
_cell_length_b       3.1026338289526874
_cell_length_c       7.56992946
_cell_angle_alpha    90.0
_cell_angle_beta     90.0
_cell_angle_gamma    119.99998945596172

_space_group_name_H-M_alt    "P 1"
_space_group_IT_number       1

loop_
  _space_group_symop_operation_xyz
  'x, y, z'

loop_
  _atom_site_type_symbol
  _atom_site_label
  _atom_site_symmetry_multiplicity
  _atom_site_fract_x
  _atom_site_fract_y
  _atom_site_fract_z
  _atom_site_occupancy
  Li  Li1       1.0  0.4786502570150688  0.815983219187089  0.5654977299266974  1.0000
  Li  Li2       1.0  0.8898304374094579  0.7146610353735383  0.3387472416122854  1.0000
  Li  Li3       1.0  0.5552886866564961  0.8742094689376572  0.59186339479648  1.0000
  Li  Li4       1.0  0.6482984861253023  0.9649139333935834  0.44231783781447287  1.0000
  O   O1        1.0  0.15619632899209535  0.6179684482638343  0.6992063722559614  1.0000
  O   O2        1.0  0.7849011153537901  0.9073619834462932  0.30466350622084093  1.0000
  O   O3        1.0  0.36673081319075607  0.5228306702012695  0.7561435670097545  1.0000
  O   O4        1.0  0.10146387485685082  0.7273822800374656  0.1569527819498262  1.0000
