data_image0
_chemical_formula_structural       Li4O4
_chemical_formula_sum              "Li4 O4"
_cell_length_a       3.10263483
_cell_length_b       3.1026338289526874
_cell_length_c       7.56992946
_cell_angle_alpha    90.0
_cell_angle_beta     90.0
_cell_angle_gamma    119.99998945596172

_space_group_name_H-M_alt    "P 1"
_space_group_IT_number       1

loop_
  _space_group_symop_operation_xyz
  'x, y, z'

loop_
  _atom_site_type_symbol
  _atom_site_label
  _atom_site_symmetry_multiplicity
  _atom_site_fract_x
  _atom_site_fract_y
  _atom_site_fract_z
  _atom_site_occupancy
  Li  Li1       1.0  0.48455480367499604  0.7403615701734481  0.537489215890659  1.0000
  Li  Li2       1.0  0.6352193267262081  0.7673919519860277  0.828232148273699  1.0000
  Li  Li3       1.0  0.6076427600936825  0.08887796336549059  0.5392779243165897  1.0000
  Li  Li4       1.0  0.07761136187218654  0.8796462284470401  0.21890184119858702  1.0000
  O   O1        1.0  0.015397600700946867  0.7953537689848451  0.85984548872311  1.0000
  O   O2        1.0  0.10441667482019312  0.9573211533662018  0.06984004609321914  1.0000
  O   O3        1.0  0.9860810653624128  0.9806986492186311  0.6424600295392631  1.0000
  O   O4        1.0  0.11351428306247868  0.6758507583263338  0.8431603689800884  1.0000
