data_image0
_chemical_formula_structural       Li4O4
_chemical_formula_sum              "Li4 O4"
_cell_length_a       3.10263483
_cell_length_b       3.1026338289526874
_cell_length_c       7.56992946
_cell_angle_alpha    90.0
_cell_angle_beta     90.0
_cell_angle_gamma    119.99998945596172

_space_group_name_H-M_alt    "P 1"
_space_group_IT_number       1

loop_
  _space_group_symop_operation_xyz
  'x, y, z'

loop_
  _atom_site_type_symbol
  _atom_site_label
  _atom_site_symmetry_multiplicity
  _atom_site_fract_x
  _atom_site_fract_y
  _atom_site_fract_z
  _atom_site_occupancy
  Li  Li1       1.0  0.20821728879279533  0.9271675164669233  0.887505341820102  1.0000
  Li  Li2       1.0  0.8475501547676743  0.01320295823451545  0.22801346793348642  1.0000
  Li  Li3       1.0  0.8858808976695798  0.32017728529481104  0.25900301691959626  1.0000
  Li  Li4       1.0  0.14722461604573311  0.5690201309801637  0.33570191564865226  1.0000
  O   O1        1.0  0.3018603718016095  0.49561937949977874  0.24798950135908626  1.0000
  O   O2        1.0  0.00035431331991730985  0.7461440501356833  0.6318209029197703  1.0000
  O   O3        1.0  0.16227862330278242  0.0333604513831709  0.02959621930271794  1.0000
  O   O4        1.0  0.5713708564061424  0.2519207480321626  0.7378248987649894  1.0000
