data_image0
_chemical_formula_structural       Li4O4
_chemical_formula_sum              "Li4 O4"
_cell_length_a       3.10263483
_cell_length_b       3.1026338289526874
_cell_length_c       7.56992946
_cell_angle_alpha    90.0
_cell_angle_beta     90.0
_cell_angle_gamma    119.99998945596172

_space_group_name_H-M_alt    "P 1"
_space_group_IT_number       1

loop_
  _space_group_symop_operation_xyz
  'x, y, z'

loop_
  _atom_site_type_symbol
  _atom_site_label
  _atom_site_symmetry_multiplicity
  _atom_site_fract_x
  _atom_site_fract_y
  _atom_site_fract_z
  _atom_site_occupancy
  Li  Li1       1.0  0.8297541131033768  0.6760095712746406  0.8494303319733802  1.0000
  Li  Li2       1.0  0.8330768077474318  0.8153761633927985  0.10542102036243861  1.0000
  Li  Li3       1.0  0.9449832604792192  0.1490780507898677  0.9307210492274436  1.0000
  Li  Li4       1.0  0.584230061540417  0.6699569799053897  0.42410410792017217  1.0000
  O   O1        1.0  0.5964890365573012  0.2505477411401926  0.8337629166308425  1.0000
  O   O2        1.0  0.21380865078325684  0.9406164199612306  0.7042114703500104  1.0000
  O   O3        1.0  0.520897025083265  0.38568092992979075  0.6900192912834022  1.0000
  O   O4        1.0  0.8159722500643127  0.21939459645897408  0.8171543474906517  1.0000
