data_image0
_chemical_formula_structural       Li4O4
_chemical_formula_sum              "Li4 O4"
_cell_length_a       3.10263483
_cell_length_b       3.1026338289526874
_cell_length_c       7.56992946
_cell_angle_alpha    90.0
_cell_angle_beta     90.0
_cell_angle_gamma    119.99998945596172

_space_group_name_H-M_alt    "P 1"
_space_group_IT_number       1

loop_
  _space_group_symop_operation_xyz
  'x, y, z'

loop_
  _atom_site_type_symbol
  _atom_site_label
  _atom_site_symmetry_multiplicity
  _atom_site_fract_x
  _atom_site_fract_y
  _atom_site_fract_z
  _atom_site_occupancy
  Li  Li1       1.0  0.6568918362091054  0.6696197385277998  0.233959048930366  1.0000
  Li  Li2       1.0  0.14342037037283717  0.8269023590346052  0.7138694593441883  1.0000
  Li  Li3       1.0  0.9167390237564632  0.6818766396729643  0.18926733838709708  1.0000
  Li  Li4       1.0  0.015058522736367763  0.7667625598606946  0.9868336324733882  1.0000
  O   O1        1.0  0.6579487968247122  0.6585692526004863  0.07755213152440632  1.0000
  O   O2        1.0  0.907465806139669  0.8250138163893439  0.4788363614372386  1.0000
  O   O3        1.0  0.6235658361625696  0.24208216999504373  0.2523222334691795  1.0000
  O   O4        1.0  0.7903465169597501  0.43985654699206833  0.4425678834807272  1.0000
