data_image0
_chemical_formula_structural       Li4O4
_chemical_formula_sum              "Li4 O4"
_cell_length_a       3.10263483
_cell_length_b       3.1026338289526874
_cell_length_c       7.56992946
_cell_angle_alpha    90.0
_cell_angle_beta     90.0
_cell_angle_gamma    119.99998945596172

_space_group_name_H-M_alt    "P 1"
_space_group_IT_number       1

loop_
  _space_group_symop_operation_xyz
  'x, y, z'

loop_
  _atom_site_type_symbol
  _atom_site_label
  _atom_site_symmetry_multiplicity
  _atom_site_fract_x
  _atom_site_fract_y
  _atom_site_fract_z
  _atom_site_occupancy
  Li  Li1       1.0  0.821503217385235  0.20167464187021267  0.6072598566172687  1.0000
  Li  Li2       1.0  0.6653725651176785  0.8502257453484372  0.281160678721605  1.0000
  Li  Li3       1.0  0.8212218548079768  0.7051751876306938  0.9796627182654483  1.0000
  Li  Li4       1.0  0.5758838717766768  0.2959370268925756  0.46597144827456916  1.0000
  O   O1        1.0  0.5995461290035706  0.1372488801618701  0.5457941731418776  1.0000
  O   O2        1.0  0.8264522910738563  0.8694873203974325  0.18836141812846208  1.0000
  O   O3        1.0  0.740741467647652  0.33306910544094137  0.6794440454863135  1.0000
  O   O4        1.0  0.2709473444777686  0.6464690427322068  0.3448515526413791  1.0000
