data_image0
_chemical_formula_structural       Li4O4
_chemical_formula_sum              "Li4 O4"
_cell_length_a       3.10263483
_cell_length_b       3.1026338289526874
_cell_length_c       7.56992946
_cell_angle_alpha    90.0
_cell_angle_beta     90.0
_cell_angle_gamma    119.99998945596172

_space_group_name_H-M_alt    "P 1"
_space_group_IT_number       1

loop_
  _space_group_symop_operation_xyz
  'x, y, z'

loop_
  _atom_site_type_symbol
  _atom_site_label
  _atom_site_symmetry_multiplicity
  _atom_site_fract_x
  _atom_site_fract_y
  _atom_site_fract_z
  _atom_site_occupancy
  Li  Li1       1.0  0.5062840996846454  0.9744267862933658  0.5896025547967696  1.0000
  Li  Li2       1.0  0.7526957603824087  0.014510745922535762  0.7350634930970799  1.0000
  Li  Li3       1.0  0.8912439894890412  0.7407665302164119  0.8927084378583316  1.0000
  Li  Li4       1.0  0.9509027919038395  0.35119290728120234  0.6623198328076718  1.0000
  O   O1        1.0  0.047420277081634765  0.6441283585978432  0.9979806092189563  1.0000
  O   O2        1.0  0.9107405269555073  0.3940166021592262  0.5779649780153022  1.0000
  O   O3        1.0  0.22852847854360903  0.9468473910664299  0.21581780624840263  1.0000
  O   O4        1.0  0.9427981493621473  0.5340764531437614  0.6315108671042271  1.0000
