data_image0
_chemical_formula_structural       Li4O4
_chemical_formula_sum              "Li4 O4"
_cell_length_a       3.10263483
_cell_length_b       3.1026338289526874
_cell_length_c       7.56992946
_cell_angle_alpha    90.0
_cell_angle_beta     90.0
_cell_angle_gamma    119.99998945596172

_space_group_name_H-M_alt    "P 1"
_space_group_IT_number       1

loop_
  _space_group_symop_operation_xyz
  'x, y, z'

loop_
  _atom_site_type_symbol
  _atom_site_label
  _atom_site_symmetry_multiplicity
  _atom_site_fract_x
  _atom_site_fract_y
  _atom_site_fract_z
  _atom_site_occupancy
  Li  Li1       1.0  0.8480896758055536  0.580189848630809  0.39333631068952  1.0000
  Li  Li2       1.0  0.75797841343784  0.8307940193887475  0.8811157315934288  1.0000
  Li  Li3       1.0  0.1389267346082832  0.13064833832933687  0.0543950237185733  1.0000
  Li  Li4       1.0  0.3257346755751769  0.5708538336753151  0.49771667653881124  1.0000
  O   O1        1.0  0.6062330415094692  0.3432206781038758  0.25241533788115333  1.0000
  O   O2        1.0  0.5845303281873413  0.07998426244660806  0.5628140688295638  1.0000
  O   O3        1.0  0.16338004782760152  0.13411544602355718  0.6467040263954189  1.0000
  O   O4        1.0  0.6562033593016494  0.1440521959413914  0.6311734799778392  1.0000
