data_image0
_chemical_formula_structural       Li4O4
_chemical_formula_sum              "Li4 O4"
_cell_length_a       3.10263483
_cell_length_b       3.1026338289526874
_cell_length_c       7.56992946
_cell_angle_alpha    90.0
_cell_angle_beta     90.0
_cell_angle_gamma    119.99998945596172

_space_group_name_H-M_alt    "P 1"
_space_group_IT_number       1

loop_
  _space_group_symop_operation_xyz
  'x, y, z'

loop_
  _atom_site_type_symbol
  _atom_site_label
  _atom_site_symmetry_multiplicity
  _atom_site_fract_x
  _atom_site_fract_y
  _atom_site_fract_z
  _atom_site_occupancy
  Li  Li1       1.0  0.062289748079905394  0.3999535359540545  0.07300598980902606  1.0000
  Li  Li2       1.0  0.8345810152410422  0.8863822077888557  0.7971070150618758  1.0000
  Li  Li3       1.0  0.34256138956922655  0.7761458192168433  0.6916502565107336  1.0000
  Li  Li4       1.0  0.04276687157968695  0.5947543716849282  0.3898391570252713  1.0000
  O   O1        1.0  0.2117153523080333  0.7294514145561095  0.5495340930580888  1.0000
  O   O2        1.0  0.4361836064327349  0.8115029431638732  0.6258746389366223  1.0000
  O   O3        1.0  0.11945476778068098  0.43801336731076645  0.4682927955423821  1.0000
  O   O4        1.0  0.42060278659838346  0.9176516249699063  0.5613204684916226  1.0000
