data_image0
_chemical_formula_structural       Li4O4
_chemical_formula_sum              "Li4 O4"
_cell_length_a       3.10263483
_cell_length_b       3.1026338289526874
_cell_length_c       7.56992946
_cell_angle_alpha    90.0
_cell_angle_beta     90.0
_cell_angle_gamma    119.99998945596172

_space_group_name_H-M_alt    "P 1"
_space_group_IT_number       1

loop_
  _space_group_symop_operation_xyz
  'x, y, z'

loop_
  _atom_site_type_symbol
  _atom_site_label
  _atom_site_symmetry_multiplicity
  _atom_site_fract_x
  _atom_site_fract_y
  _atom_site_fract_z
  _atom_site_occupancy
  Li  Li1       1.0  0.4223012168001148  0.8418886058581165  0.9449412232005514  1.0000
  Li  Li2       1.0  0.4339427177392565  0.1805780784659847  0.8193368740810953  1.0000
  Li  Li3       1.0  0.7952058033690648  0.6098630230394946  0.6772334680975156  1.0000
  Li  Li4       1.0  0.04546422793221794  0.4290339485909982  0.9978017451865782  1.0000
  O   O1        1.0  0.2701842062311357  0.5604615511509818  0.4087072449283973  1.0000
  O   O2        1.0  0.9716552777076117  0.48244957578405234  0.34418317583025093  1.0000
  O   O3        1.0  0.04472212140428411  0.6776409835414725  0.8699045387639188  1.0000
  O   O4        1.0  0.3222625984183196  0.2706023869844749  0.6389080827647762  1.0000
