data_image0
_chemical_formula_structural       Li4O4
_chemical_formula_sum              "Li4 O4"
_cell_length_a       3.10263483
_cell_length_b       3.1026338289526874
_cell_length_c       7.56992946
_cell_angle_alpha    90.0
_cell_angle_beta     90.0
_cell_angle_gamma    119.99998945596172

_space_group_name_H-M_alt    "P 1"
_space_group_IT_number       1

loop_
  _space_group_symop_operation_xyz
  'x, y, z'

loop_
  _atom_site_type_symbol
  _atom_site_label
  _atom_site_symmetry_multiplicity
  _atom_site_fract_x
  _atom_site_fract_y
  _atom_site_fract_z
  _atom_site_occupancy
  Li  Li1       1.0  0.8544360011129584  0.9828336710998116  0.34974665820328  1.0000
  Li  Li2       1.0  0.7545753943747115  0.9237240133314799  0.8885239855506253  1.0000
  Li  Li3       1.0  0.7671440091735917  0.7099209572849929  0.3927390310606249  1.0000
  Li  Li4       1.0  0.13851856389319295  0.08508187654025079  0.8218453695470451  1.0000
  O   O1        1.0  0.5307732718428895  0.6427520932871715  0.6232614080877035  1.0000
  O   O2        1.0  0.44257634097499476  0.654855188946101  0.006733080533024349  1.0000
  O   O3        1.0  0.25895086308899806  0.33085045017381276  0.015878931931442963  1.0000
  O   O4        1.0  0.6696568408388082  0.11603410035771589  0.18760424057886027  1.0000
