data_image0
_chemical_formula_structural       Li4O4
_chemical_formula_sum              "Li4 O4"
_cell_length_a       3.10263483
_cell_length_b       3.1026338289526874
_cell_length_c       7.56992946
_cell_angle_alpha    90.0
_cell_angle_beta     90.0
_cell_angle_gamma    119.99998945596172

_space_group_name_H-M_alt    "P 1"
_space_group_IT_number       1

loop_
  _space_group_symop_operation_xyz
  'x, y, z'

loop_
  _atom_site_type_symbol
  _atom_site_label
  _atom_site_symmetry_multiplicity
  _atom_site_fract_x
  _atom_site_fract_y
  _atom_site_fract_z
  _atom_site_occupancy
  Li  Li1       1.0  0.7065642420436333  0.2258504550302689  0.0332572214971627  1.0000
  Li  Li2       1.0  0.1681891502220907  0.8914275982782698  0.0863210130321228  1.0000
  Li  Li3       1.0  0.897429312346361  0.24294561363285894  0.102310954700215  1.0000
  Li  Li4       1.0  0.6767655320437989  0.2692134815814242  0.5007735092375745  1.0000
  O   O1        1.0  0.8130213686230903  0.15140746045815945  0.13259980054896303  1.0000
  O   O2        1.0  0.5558738364944134  0.6392934920757583  0.6817334118024405  1.0000
  O   O3        1.0  0.07112052727770646  0.8424782483594484  0.6630872545068307  1.0000
  O   O4        1.0  0.1051940420097921  0.12519813973152694  0.7037548416488022  1.0000
