data_image0
_chemical_formula_structural       Li4O4
_chemical_formula_sum              "Li4 O4"
_cell_length_a       3.10263483
_cell_length_b       3.1026338289526874
_cell_length_c       7.56992946
_cell_angle_alpha    90.0
_cell_angle_beta     90.0
_cell_angle_gamma    119.99998945596172

_space_group_name_H-M_alt    "P 1"
_space_group_IT_number       1

loop_
  _space_group_symop_operation_xyz
  'x, y, z'

loop_
  _atom_site_type_symbol
  _atom_site_label
  _atom_site_symmetry_multiplicity
  _atom_site_fract_x
  _atom_site_fract_y
  _atom_site_fract_z
  _atom_site_occupancy
  Li  Li1       1.0  0.9455923832685187  0.27901346383237424  0.4717169256761551  1.0000
  Li  Li2       1.0  0.7726212588143717  0.20516071916349077  0.7428388981317724  1.0000
  Li  Li3       1.0  0.9547011627549864  0.7138449857828135  0.3059442398202812  1.0000
  Li  Li4       1.0  0.7397266060213799  0.8147177523433058  0.8799204020520115  1.0000
  O   O1        1.0  0.7883557373975671  0.6398425924778328  0.2443932177731707  1.0000
  O   O2        1.0  0.8206029459500606  0.4156740317335057  0.6191620397409778  1.0000
  O   O3        1.0  0.8526309161578212  0.7366409470065776  0.06338885242216925  1.0000
  O   O4        1.0  0.18338903949004504  0.19979441052063152  0.805241900560782  1.0000
