data_image0
_chemical_formula_structural       Li4O4
_chemical_formula_sum              "Li4 O4"
_cell_length_a       3.10263483
_cell_length_b       3.1026338289526874
_cell_length_c       7.56992946
_cell_angle_alpha    90.0
_cell_angle_beta     90.0
_cell_angle_gamma    119.99998945596172

_space_group_name_H-M_alt    "P 1"
_space_group_IT_number       1

loop_
  _space_group_symop_operation_xyz
  'x, y, z'

loop_
  _atom_site_type_symbol
  _atom_site_label
  _atom_site_symmetry_multiplicity
  _atom_site_fract_x
  _atom_site_fract_y
  _atom_site_fract_z
  _atom_site_occupancy
  Li  Li1       1.0  0.7482584615466266  0.6560006441551565  0.9477693265925495  1.0000
  Li  Li2       1.0  0.4514947724460825  0.8034967174863539  0.7796287738863263  1.0000
  Li  Li3       1.0  0.20116106538722534  0.06770871508213361  0.36435673585856776  1.0000
  Li  Li4       1.0  0.7613597477101379  0.7831371751497223  0.35162061531648625  1.0000
  O   O1        1.0  0.8209245399766374  0.23646476266404193  0.431033494487842  1.0000
  O   O2        1.0  0.568777829041295  0.30250074830506435  0.0780028767128158  1.0000
  O   O3        1.0  0.4036874623378637  0.011685444663495304  0.513765149307968  1.0000
  O   O4        1.0  0.40206151765383424  0.5986586491162207  0.9572752204664372  1.0000
