data_image0
_chemical_formula_structural       Li4O4
_chemical_formula_sum              "Li4 O4"
_cell_length_a       3.10263483
_cell_length_b       3.1026338289526874
_cell_length_c       7.56992946
_cell_angle_alpha    90.0
_cell_angle_beta     90.0
_cell_angle_gamma    119.99998945596172

_space_group_name_H-M_alt    "P 1"
_space_group_IT_number       1

loop_
  _space_group_symop_operation_xyz
  'x, y, z'

loop_
  _atom_site_type_symbol
  _atom_site_label
  _atom_site_symmetry_multiplicity
  _atom_site_fract_x
  _atom_site_fract_y
  _atom_site_fract_z
  _atom_site_occupancy
  Li  Li1       1.0  0.8837102189592656  0.8762964653108298  0.727661471257818  1.0000
  Li  Li2       1.0  0.2840985747024263  0.519000644293925  0.39735677508981837  1.0000
  Li  Li3       1.0  0.02927454379184269  0.08547309634193212  0.08501889800654538  1.0000
  Li  Li4       1.0  0.6392008357329075  0.007570219271514134  0.05833014305211037  1.0000
  O   O1        1.0  0.9881250884498467  0.7582514750984757  0.9717205936509217  1.0000
  O   O2        1.0  0.502219740078317  0.21932011038901322  0.3969937738292373  1.0000
  O   O3        1.0  0.6912260558775891  0.025234137814955204  0.09077087896711689  1.0000
  O   O4        1.0  0.24457130752957834  0.08106461045849755  0.6497531273654857  1.0000
