data_image0
_chemical_formula_structural       Li4O4
_chemical_formula_sum              "Li4 O4"
_cell_length_a       3.10263483
_cell_length_b       3.1026338289526874
_cell_length_c       7.56992946
_cell_angle_alpha    90.0
_cell_angle_beta     90.0
_cell_angle_gamma    119.99998945596172

_space_group_name_H-M_alt    "P 1"
_space_group_IT_number       1

loop_
  _space_group_symop_operation_xyz
  'x, y, z'

loop_
  _atom_site_type_symbol
  _atom_site_label
  _atom_site_symmetry_multiplicity
  _atom_site_fract_x
  _atom_site_fract_y
  _atom_site_fract_z
  _atom_site_occupancy
  Li  Li1       1.0  0.8507216924110779  0.6006531813852973  0.34538949072940994  1.0000
  Li  Li2       1.0  0.21760035620695817  0.40933325368948204  0.15716971005874925  1.0000
  Li  Li3       1.0  0.07459336425358742  0.2787766123939548  0.8290542326980734  1.0000
  Li  Li4       1.0  0.7931572182446871  0.7089280093090671  0.9278166695856287  1.0000
  O   O1        1.0  0.31616943084246785  0.7517003358031102  0.478125105121606  1.0000
  O   O2        1.0  0.7619624067096922  0.06115891415835506  0.5320466585939165  1.0000
  O   O3        1.0  0.676071037819149  0.04805112428396541  0.29586370167937664  1.0000
  O   O4        1.0  0.08639733130603844  0.4510555886890444  0.6298582412917098  1.0000
