data_image0
_chemical_formula_structural       Li4O4
_chemical_formula_sum              "Li4 O4"
_cell_length_a       3.10263483
_cell_length_b       3.1026338289526874
_cell_length_c       7.56992946
_cell_angle_alpha    90.0
_cell_angle_beta     90.0
_cell_angle_gamma    119.99998945596172

_space_group_name_H-M_alt    "P 1"
_space_group_IT_number       1

loop_
  _space_group_symop_operation_xyz
  'x, y, z'

loop_
  _atom_site_type_symbol
  _atom_site_label
  _atom_site_symmetry_multiplicity
  _atom_site_fract_x
  _atom_site_fract_y
  _atom_site_fract_z
  _atom_site_occupancy
  Li  Li1       1.0  0.7701345174923659  0.0546000671417346  0.8387896067219742  1.0000
  Li  Li2       1.0  0.32335579428121264  0.9113507256840103  0.6018830012331264  1.0000
  Li  Li3       1.0  0.762635237184476  0.2801126057417065  0.5913120879303104  1.0000
  Li  Li4       1.0  0.6000962433944323  0.12734063157404307  0.8667847629478302  1.0000
  O   O1        1.0  0.44348389971306545  0.8598317426431255  0.8976536433620304  1.0000
  O   O2        1.0  0.7812048901822237  0.2714604454158902  0.7710373293947246  1.0000
  O   O3        1.0  0.6166785239117232  0.9427586787047346  0.4477796247526378  1.0000
  O   O4        1.0  0.02960870698747442  0.15855632305626877  0.5826141702562533  1.0000
