data_image0
_chemical_formula_structural       Li4O4
_chemical_formula_sum              "Li4 O4"
_cell_length_a       3.10263483
_cell_length_b       3.1026338289526874
_cell_length_c       7.56992946
_cell_angle_alpha    90.0
_cell_angle_beta     90.0
_cell_angle_gamma    119.99998945596172

_space_group_name_H-M_alt    "P 1"
_space_group_IT_number       1

loop_
  _space_group_symop_operation_xyz
  'x, y, z'

loop_
  _atom_site_type_symbol
  _atom_site_label
  _atom_site_symmetry_multiplicity
  _atom_site_fract_x
  _atom_site_fract_y
  _atom_site_fract_z
  _atom_site_occupancy
  Li  Li1       1.0  0.17385668122038567  0.024908216912777448  0.6933730778000609  1.0000
  Li  Li2       1.0  0.6851938725380649  0.058676446561756634  0.691797167923994  1.0000
  Li  Li3       1.0  0.39532936745983704  0.04924954083379873  0.03318548001334243  1.0000
  Li  Li4       1.0  0.9847612708168931  0.7732192174210155  0.07830061899395913  1.0000
  O   O1        1.0  0.38192188478830147  0.4645714539005006  0.14879972762958715  1.0000
  O   O2        1.0  0.978877309236637  0.22497883633756288  0.5273085152721233  1.0000
  O   O3        1.0  0.6178380421395175  0.8353412023905094  0.7802653892315448  1.0000
  O   O4        1.0  0.6486860114265127  0.13358638946753842  0.5610898574549952  1.0000
