data_image0
_chemical_formula_structural       Li4O4
_chemical_formula_sum              "Li4 O4"
_cell_length_a       3.10263483
_cell_length_b       3.1026338289526874
_cell_length_c       7.56992946
_cell_angle_alpha    90.0
_cell_angle_beta     90.0
_cell_angle_gamma    119.99998945596172

_space_group_name_H-M_alt    "P 1"
_space_group_IT_number       1

loop_
  _space_group_symop_operation_xyz
  'x, y, z'

loop_
  _atom_site_type_symbol
  _atom_site_label
  _atom_site_symmetry_multiplicity
  _atom_site_fract_x
  _atom_site_fract_y
  _atom_site_fract_z
  _atom_site_occupancy
  Li  Li1       1.0  0.3231223175679254  0.7397585300298672  0.8721597423386953  1.0000
  Li  Li2       1.0  0.9794917869388371  0.09656223720993751  0.6100685141437481  1.0000
  Li  Li3       1.0  0.3740385385318348  0.6580679530447213  0.3794236496314696  1.0000
  Li  Li4       1.0  0.765760385331987  0.690795275519946  0.39712653668500586  1.0000
  O   O1        1.0  0.8196177484892075  0.6874058659169222  0.4112540129034272  1.0000
  O   O2        1.0  0.15425357597770528  0.4268867413752986  0.5404675463834181  1.0000
  O   O3        1.0  0.07985356025837831  0.6754150263848828  0.2834763848281554  1.0000
  O   O4        1.0  0.5957066547664542  0.4541355239824725  0.7631115595701559  1.0000
