data_image0
_chemical_formula_structural       Li4O4
_chemical_formula_sum              "Li4 O4"
_cell_length_a       3.10263483
_cell_length_b       3.1026338289526874
_cell_length_c       7.56992946
_cell_angle_alpha    90.0
_cell_angle_beta     90.0
_cell_angle_gamma    119.99998945596172

_space_group_name_H-M_alt    "P 1"
_space_group_IT_number       1

loop_
  _space_group_symop_operation_xyz
  'x, y, z'

loop_
  _atom_site_type_symbol
  _atom_site_label
  _atom_site_symmetry_multiplicity
  _atom_site_fract_x
  _atom_site_fract_y
  _atom_site_fract_z
  _atom_site_occupancy
  Li  Li1       1.0  0.5067927209678373  0.9012524913872255  0.6464181025551383  1.0000
  Li  Li2       1.0  0.702243182181661  0.20420240079977248  0.6676502445659267  1.0000
  Li  Li3       1.0  0.31494524511569466  0.5109318499984212  0.36816979927419524  1.0000
  Li  Li4       1.0  0.39133360208182744  0.28002739338521465  0.2779699675553413  1.0000
  O   O1        1.0  0.21143905297423515  0.5929712877852111  0.0029763966291831423  1.0000
  O   O2        1.0  0.40575555391770024  0.1332773348207894  0.5972049456079773  1.0000
  O   O3        1.0  0.17430312153346428  0.6100895601446865  0.4078804900890596  1.0000
  O   O4        1.0  0.3352882543374349  0.7456380382840315  0.9884747024635452  1.0000
