data_image0
_chemical_formula_structural       Li4O4
_chemical_formula_sum              "Li4 O4"
_cell_length_a       3.10263483
_cell_length_b       3.1026338289526874
_cell_length_c       7.56992946
_cell_angle_alpha    90.0
_cell_angle_beta     90.0
_cell_angle_gamma    119.99998945596172

_space_group_name_H-M_alt    "P 1"
_space_group_IT_number       1

loop_
  _space_group_symop_operation_xyz
  'x, y, z'

loop_
  _atom_site_type_symbol
  _atom_site_label
  _atom_site_symmetry_multiplicity
  _atom_site_fract_x
  _atom_site_fract_y
  _atom_site_fract_z
  _atom_site_occupancy
  Li  Li1       1.0  0.9346847218313954  0.4753277632275683  0.23439136897100354  1.0000
  Li  Li2       1.0  0.11753899076585128  0.32546792585458206  0.04849738999240394  1.0000
  Li  Li3       1.0  0.02937263854637706  0.16459437307804592  0.8922098308632265  1.0000
  Li  Li4       1.0  0.7304940436984886  0.8729026628048118  0.04824692123010621  1.0000
  O   O1        1.0  0.4319496569665091  0.11823309109198021  0.39149156111176  1.0000
  O   O2        1.0  0.9607379238480576  0.5802034534552476  0.5070826765301426  1.0000
  O   O3        1.0  0.0062842864107182095  0.5321758752552768  0.5816177428109555  1.0000
  O   O4        1.0  0.9311112633617356  0.3886427012718414  0.027953211806632794  1.0000
