data_image0
_chemical_formula_structural       Li4O4
_chemical_formula_sum              "Li4 O4"
_cell_length_a       3.10263483
_cell_length_b       3.1026338289526874
_cell_length_c       7.56992946
_cell_angle_alpha    90.0
_cell_angle_beta     90.0
_cell_angle_gamma    119.99998945596172

_space_group_name_H-M_alt    "P 1"
_space_group_IT_number       1

loop_
  _space_group_symop_operation_xyz
  'x, y, z'

loop_
  _atom_site_type_symbol
  _atom_site_label
  _atom_site_symmetry_multiplicity
  _atom_site_fract_x
  _atom_site_fract_y
  _atom_site_fract_z
  _atom_site_occupancy
  Li  Li1       1.0  0.17858282439342155  0.35001183897794874  0.8221199509551678  1.0000
  Li  Li2       1.0  0.1417868869700598  0.44561823788990473  0.7044459969921419  1.0000
  Li  Li3       1.0  0.5085606368111364  0.9928392700709807  0.2028108999571696  1.0000
  Li  Li4       1.0  0.7557267149705407  0.8337224946168504  0.9530346629656243  1.0000
  O   O1        1.0  0.09027394854200566  0.5282212991598421  0.9416382415008195  1.0000
  O   O2        1.0  0.3053969014962661  0.5911228884861401  0.49226506983896456  1.0000
  O   O3        1.0  0.17875822314867262  0.7766746077361879  0.862206907493432  1.0000
  O   O4        1.0  0.5886732934020102  0.8549942733934104  0.006438326516075676  1.0000
