data_image0
_chemical_formula_structural       Li4O4
_chemical_formula_sum              "Li4 O4"
_cell_length_a       3.10263483
_cell_length_b       3.1026338289526874
_cell_length_c       7.56992946
_cell_angle_alpha    90.0
_cell_angle_beta     90.0
_cell_angle_gamma    119.99998945596172

_space_group_name_H-M_alt    "P 1"
_space_group_IT_number       1

loop_
  _space_group_symop_operation_xyz
  'x, y, z'

loop_
  _atom_site_type_symbol
  _atom_site_label
  _atom_site_symmetry_multiplicity
  _atom_site_fract_x
  _atom_site_fract_y
  _atom_site_fract_z
  _atom_site_occupancy
  Li  Li1       1.0  0.3756541167763032  0.5025098809289701  0.10326659542161565  1.0000
  Li  Li2       1.0  0.9338074149022075  0.39666337097366267  0.9679288902389436  1.0000
  Li  Li3       1.0  0.0701236221247683  0.7245948031625815  0.4529308026506338  1.0000
  Li  Li4       1.0  0.9031987929046235  0.8438587671594249  0.0889485327293773  1.0000
  O   O1        1.0  0.8509940470448392  0.2839986873336009  0.7915541218801714  1.0000
  O   O2        1.0  0.7163322713177448  0.041385314162123876  0.5789489293296839  1.0000
  O   O3        1.0  0.09810855170029598  0.6764708250940568  0.004525109405075334  1.0000
  O   O4        1.0  0.9755084938143526  0.5157070297435737  0.5742145949827542  1.0000
