data_image0
_chemical_formula_structural       Li4O4
_chemical_formula_sum              "Li4 O4"
_cell_length_a       3.10263483
_cell_length_b       3.1026338289526874
_cell_length_c       7.56992946
_cell_angle_alpha    90.0
_cell_angle_beta     90.0
_cell_angle_gamma    119.99998945596172

_space_group_name_H-M_alt    "P 1"
_space_group_IT_number       1

loop_
  _space_group_symop_operation_xyz
  'x, y, z'

loop_
  _atom_site_type_symbol
  _atom_site_label
  _atom_site_symmetry_multiplicity
  _atom_site_fract_x
  _atom_site_fract_y
  _atom_site_fract_z
  _atom_site_occupancy
  Li  Li1       1.0  0.37600953943026383  0.1043193095779884  0.22532762885771263  1.0000
  Li  Li2       1.0  0.018176697371217188  0.6067985580008184  0.28167875265848075  1.0000
  Li  Li3       1.0  0.6054174121848774  0.5877867457261914  0.20144150940022032  1.0000
  Li  Li4       1.0  0.9096976814846087  0.46944289872018885  0.10322228494232277  1.0000
  O   O1        1.0  0.30964141088982444  0.7658824997577653  0.8525185202085375  1.0000
  O   O2        1.0  0.3961013619650231  0.6471479235100048  0.026545556049430985  1.0000
  O   O3        1.0  0.006307164018053868  0.8582104922814366  0.862067846097677  1.0000
  O   O4        1.0  0.8995400959003303  0.7748501620161328  0.08756532756220992  1.0000
