data_image0
_chemical_formula_structural       Li4O4
_chemical_formula_sum              "Li4 O4"
_cell_length_a       3.10263483
_cell_length_b       3.1026338289526874
_cell_length_c       7.56992946
_cell_angle_alpha    90.0
_cell_angle_beta     90.0
_cell_angle_gamma    119.99998945596172

_space_group_name_H-M_alt    "P 1"
_space_group_IT_number       1

loop_
  _space_group_symop_operation_xyz
  'x, y, z'

loop_
  _atom_site_type_symbol
  _atom_site_label
  _atom_site_symmetry_multiplicity
  _atom_site_fract_x
  _atom_site_fract_y
  _atom_site_fract_z
  _atom_site_occupancy
  Li  Li1       1.0  0.7714477858384523  0.9709636774965753  0.2834254324802359  1.0000
  Li  Li2       1.0  0.9463907415095036  0.26433937480550185  0.10060928291345661  1.0000
  Li  Li3       1.0  0.09115163786914593  0.14228481710892993  0.7069398425120923  1.0000
  Li  Li4       1.0  0.5133383558301539  0.7700318039871217  0.26570994258264413  1.0000
  O   O1        1.0  0.7864496344736835  0.03509325641859318  0.1012523976757862  1.0000
  O   O2        1.0  0.3890444219478226  0.27836139571894236  0.616954199914133  1.0000
  O   O3        1.0  0.6840273641819294  0.06425751591996942  0.6490286358993131  1.0000
  O   O4        1.0  0.9001756251744197  0.9291361232404238  0.5156059082845452  1.0000
