data_image0
_chemical_formula_structural       Li4O4
_chemical_formula_sum              "Li4 O4"
_cell_length_a       3.10263483
_cell_length_b       3.1026338289526874
_cell_length_c       7.56992946
_cell_angle_alpha    90.0
_cell_angle_beta     90.0
_cell_angle_gamma    119.99998945596172

_space_group_name_H-M_alt    "P 1"
_space_group_IT_number       1

loop_
  _space_group_symop_operation_xyz
  'x, y, z'

loop_
  _atom_site_type_symbol
  _atom_site_label
  _atom_site_symmetry_multiplicity
  _atom_site_fract_x
  _atom_site_fract_y
  _atom_site_fract_z
  _atom_site_occupancy
  Li  Li1       1.0  0.917983340106943  0.746070845403537  0.9656080681052899  1.0000
  Li  Li2       1.0  0.4410644492684668  0.7197662367075068  0.5903280526705151  1.0000
  Li  Li3       1.0  0.1814213214353586  0.3255327672151225  0.18502684582610307  1.0000
  Li  Li4       1.0  0.2994636425727748  0.22069933867694402  0.28310554261908294  1.0000
  O   O1        1.0  0.4522624450381443  0.6240148934470895  0.4897032399048449  1.0000
  O   O2        1.0  0.8844494796113196  0.7109996818775102  0.9517697790752884  1.0000
  O   O3        1.0  0.7708508512403967  0.34044597159434886  0.7271755552447843  1.0000
  O   O4        1.0  0.6389613493938171  0.4045359135071358  0.529197250140804  1.0000
