data_image0
_chemical_formula_structural       Li4O4
_chemical_formula_sum              "Li4 O4"
_cell_length_a       3.10263483
_cell_length_b       3.1026338289526874
_cell_length_c       7.56992946
_cell_angle_alpha    90.0
_cell_angle_beta     90.0
_cell_angle_gamma    119.99998945596172

_space_group_name_H-M_alt    "P 1"
_space_group_IT_number       1

loop_
  _space_group_symop_operation_xyz
  'x, y, z'

loop_
  _atom_site_type_symbol
  _atom_site_label
  _atom_site_symmetry_multiplicity
  _atom_site_fract_x
  _atom_site_fract_y
  _atom_site_fract_z
  _atom_site_occupancy
  Li  Li1       1.0  0.1310443637798997  0.04910870236074061  0.45594689511911923  1.0000
  Li  Li2       1.0  0.6998155032908926  0.8829849752129206  0.8309761508587385  1.0000
  Li  Li3       1.0  0.20355254299278158  0.6120660470609707  0.05339916333002748  1.0000
  Li  Li4       1.0  0.60101383759946  0.3907549765385845  0.8234135407077261  1.0000
  O   O1        1.0  0.4613378515698159  0.6860178198363052  0.6540420268667582  1.0000
  O   O2        1.0  0.49099105238985885  0.4908892759744319  0.08297064386421482  1.0000
  O   O3        1.0  0.29982298660826245  0.49471982166892303  0.32790480373716235  1.0000
  O   O4        1.0  0.2741306885550081  0.3456081267460469  0.6320945018935831  1.0000
