data_image0
_chemical_formula_structural       Li4O4
_chemical_formula_sum              "Li4 O4"
_cell_length_a       3.10263483
_cell_length_b       3.1026338289526874
_cell_length_c       7.56992946
_cell_angle_alpha    90.0
_cell_angle_beta     90.0
_cell_angle_gamma    119.99998945596172

_space_group_name_H-M_alt    "P 1"
_space_group_IT_number       1

loop_
  _space_group_symop_operation_xyz
  'x, y, z'

loop_
  _atom_site_type_symbol
  _atom_site_label
  _atom_site_symmetry_multiplicity
  _atom_site_fract_x
  _atom_site_fract_y
  _atom_site_fract_z
  _atom_site_occupancy
  Li  Li1       1.0  0.10618346394933198  0.2153979673294657  0.7799608739702819  1.0000
  Li  Li2       1.0  0.6645169379341098  0.6378383534304959  0.03099497906394788  1.0000
  Li  Li3       1.0  0.29602551931528964  0.7993739868904086  0.30437335192084447  1.0000
  Li  Li4       1.0  0.23602407345948606  0.5836426989420076  0.9026109274623497  1.0000
  O   O1        1.0  0.5993391166201292  0.367545564453593  0.42066764763714737  1.0000
  O   O2        1.0  0.6239213495186782  0.41014152576684637  0.7501172081182794  1.0000
  O   O3        1.0  0.9636182980393784  0.2544970887161959  0.42435964129215975  1.0000
  O   O4        1.0  0.2503278463557521  0.504437253605289  0.8912402330282267  1.0000
