data_image0
_chemical_formula_structural       Li4O4
_chemical_formula_sum              "Li4 O4"
_cell_length_a       3.10263483
_cell_length_b       3.1026338289526874
_cell_length_c       7.56992946
_cell_angle_alpha    90.0
_cell_angle_beta     90.0
_cell_angle_gamma    119.99998945596172

_space_group_name_H-M_alt    "P 1"
_space_group_IT_number       1

loop_
  _space_group_symop_operation_xyz
  'x, y, z'

loop_
  _atom_site_type_symbol
  _atom_site_label
  _atom_site_symmetry_multiplicity
  _atom_site_fract_x
  _atom_site_fract_y
  _atom_site_fract_z
  _atom_site_occupancy
  Li  Li1       1.0  0.2886752745000205  0.8724169710981613  0.921448164909755  1.0000
  Li  Li2       1.0  0.47045626512533545  0.7828039097885977  0.9943960446336746  1.0000
  Li  Li3       1.0  0.979762347607064  0.4622666989137798  0.828509981298069  1.0000
  Li  Li4       1.0  0.07804132743170555  0.28803738094727294  0.01203579424865353  1.0000
  O   O1        1.0  0.6401050661962415  0.1214212090099025  0.8867739431430692  1.0000
  O   O2        1.0  0.8416739811358127  0.695925819094029  0.6462210979420817  1.0000
  O   O3        1.0  0.047147814426015344  0.9842463110495778  0.7355626155568444  1.0000
  O   O4        1.0  0.21867823750912407  0.7947205498269625  0.07546643382380225  1.0000
