data_image0
_chemical_formula_structural       Li4O4
_chemical_formula_sum              "Li4 O4"
_cell_length_a       3.10263483
_cell_length_b       3.1026338289526874
_cell_length_c       7.56992946
_cell_angle_alpha    90.0
_cell_angle_beta     90.0
_cell_angle_gamma    119.99998945596172

_space_group_name_H-M_alt    "P 1"
_space_group_IT_number       1

loop_
  _space_group_symop_operation_xyz
  'x, y, z'

loop_
  _atom_site_type_symbol
  _atom_site_label
  _atom_site_symmetry_multiplicity
  _atom_site_fract_x
  _atom_site_fract_y
  _atom_site_fract_z
  _atom_site_occupancy
  Li  Li1       1.0  0.17791310429190332  0.296672394614518  0.3446535432146902  1.0000
  Li  Li2       1.0  0.013605129053161136  0.08078593132945144  0.7599788242578764  1.0000
  Li  Li3       1.0  0.5105384650504021  0.10502621882407936  0.26692296552935124  1.0000
  Li  Li4       1.0  0.2763571590311784  0.6485060385594537  0.5284489182825576  1.0000
  O   O1        1.0  0.35098244375969045  0.09788284118874202  0.4680611184739121  1.0000
  O   O2        1.0  0.10295035785985363  0.6699115427524873  0.07880051825204504  1.0000
  O   O3        1.0  0.1607637349788007  0.01766023774925074  0.3523143411954699  1.0000
  O   O4        1.0  0.7995630046650177  0.6610957596196196  0.7183071928801494  1.0000
