data_image0
_chemical_formula_structural       Li4O4
_chemical_formula_sum              "Li4 O4"
_cell_length_a       3.10263483
_cell_length_b       3.1026338289526874
_cell_length_c       7.56992946
_cell_angle_alpha    90.0
_cell_angle_beta     90.0
_cell_angle_gamma    119.99998945596172

_space_group_name_H-M_alt    "P 1"
_space_group_IT_number       1

loop_
  _space_group_symop_operation_xyz
  'x, y, z'

loop_
  _atom_site_type_symbol
  _atom_site_label
  _atom_site_symmetry_multiplicity
  _atom_site_fract_x
  _atom_site_fract_y
  _atom_site_fract_z
  _atom_site_occupancy
  Li  Li1       1.0  0.508476892666085  0.5173801634984221  0.8011207461592775  1.0000
  Li  Li2       1.0  0.726495824641745  0.3089514215054976  0.8542321453471935  1.0000
  Li  Li3       1.0  0.8985380182867857  0.5426470292972425  0.4983081676611718  1.0000
  Li  Li4       1.0  0.7409910234486254  0.2816286752101309  0.7721958187923965  1.0000
  O   O1        1.0  0.2981139094957257  0.16040114540459305  0.5612725689798594  1.0000
  O   O2        1.0  0.26748270284181075  0.9355783607485222  0.48475228810076487  1.0000
  O   O3        1.0  0.07966761586758508  0.580001385688881  0.10931114296950639  1.0000
  O   O4        1.0  0.4210464477188296  0.08731202720267461  0.036319209042913414  1.0000
