data_image0
_chemical_formula_structural       Li4O4
_chemical_formula_sum              "Li4 O4"
_cell_length_a       3.10263483
_cell_length_b       3.1026338289526874
_cell_length_c       7.56992946
_cell_angle_alpha    90.0
_cell_angle_beta     90.0
_cell_angle_gamma    119.99998945596172

_space_group_name_H-M_alt    "P 1"
_space_group_IT_number       1

loop_
  _space_group_symop_operation_xyz
  'x, y, z'

loop_
  _atom_site_type_symbol
  _atom_site_label
  _atom_site_symmetry_multiplicity
  _atom_site_fract_x
  _atom_site_fract_y
  _atom_site_fract_z
  _atom_site_occupancy
  Li  Li1       1.0  0.7483426583559094  0.9200839204966798  0.31137762294113713  1.0000
  Li  Li2       1.0  0.13016785881907822  0.3056978019308332  0.6324291769958865  1.0000
  Li  Li3       1.0  0.4802314741695426  0.8680437691691054  0.4197876084061356  1.0000
  Li  Li4       1.0  0.9968169927126489  0.781602468885545  0.95614068546314  1.0000
  O   O1        1.0  0.9997355687343656  0.38695256820967217  0.8686392812245245  1.0000
  O   O2        1.0  0.4631754241387682  0.43993124283571206  0.0633563627217626  1.0000
  O   O3        1.0  0.7881423443041768  0.4579917680334944  0.8363274119201733  1.0000
  O   O4        1.0  0.17960251380601022  0.32259741704212885  0.40223286516220114  1.0000
