data_image0
_chemical_formula_structural       Li4O4
_chemical_formula_sum              "Li4 O4"
_cell_length_a       3.10263483
_cell_length_b       3.1026338289526874
_cell_length_c       7.56992946
_cell_angle_alpha    90.0
_cell_angle_beta     90.0
_cell_angle_gamma    119.99998945596172

_space_group_name_H-M_alt    "P 1"
_space_group_IT_number       1

loop_
  _space_group_symop_operation_xyz
  'x, y, z'

loop_
  _atom_site_type_symbol
  _atom_site_label
  _atom_site_symmetry_multiplicity
  _atom_site_fract_x
  _atom_site_fract_y
  _atom_site_fract_z
  _atom_site_occupancy
  Li  Li1       1.0  0.2053105705110596  0.09308891896181137  0.11072178455857085  1.0000
  Li  Li2       1.0  0.729798127701315  0.7040291957688962  0.22105324948101313  1.0000
  Li  Li3       1.0  0.91944963454808  0.6337409539256669  0.08090062014419352  1.0000
  Li  Li4       1.0  0.8902558165222523  0.7501474960893759  0.8086915033626223  1.0000
  O   O1        1.0  0.09083839600054944  0.04883022875568521  0.8204444376714655  1.0000
  O   O2        1.0  0.4232020360880284  0.04185486786502679  0.8246121330257026  1.0000
  O   O3        1.0  0.16617772694429078  0.2345653927881095  0.8097825014252571  1.0000
  O   O4        1.0  0.4948625328130021  0.6478719618594919  0.6958690697871304  1.0000
