data_image0
_chemical_formula_structural       Li4O4
_chemical_formula_sum              "Li4 O4"
_cell_length_a       3.10263483
_cell_length_b       3.1026338289526874
_cell_length_c       7.56992946
_cell_angle_alpha    90.0
_cell_angle_beta     90.0
_cell_angle_gamma    119.99998945596172

_space_group_name_H-M_alt    "P 1"
_space_group_IT_number       1

loop_
  _space_group_symop_operation_xyz
  'x, y, z'

loop_
  _atom_site_type_symbol
  _atom_site_label
  _atom_site_symmetry_multiplicity
  _atom_site_fract_x
  _atom_site_fract_y
  _atom_site_fract_z
  _atom_site_occupancy
  Li  Li1       1.0  0.5467500898992341  0.45324459644341264  0.5908743519298341  1.0000
  Li  Li2       1.0  0.3464421694869628  0.6578269010444302  0.557428748451894  1.0000
  Li  Li3       1.0  0.9568052962176665  0.8648216599867169  0.616992801268637  1.0000
  Li  Li4       1.0  0.06322983155054729  0.2774265013066479  0.1959436979238447  1.0000
  O   O1        1.0  0.8506518951300706  0.6700602661835928  0.26117182094849056  1.0000
  O   O2        1.0  0.7154149472447031  0.7274503969370443  0.8858289740325418  1.0000
  O   O3        1.0  0.6754433186647688  0.9395636880126972  0.6003338896371702  1.0000
  O   O4        1.0  0.41490754403664454  0.9360725993973413  0.7488450812775458  1.0000
