data_image0
_chemical_formula_structural       Li4O4
_chemical_formula_sum              "Li4 O4"
_cell_length_a       3.10263483
_cell_length_b       3.1026338289526874
_cell_length_c       7.56992946
_cell_angle_alpha    90.0
_cell_angle_beta     90.0
_cell_angle_gamma    119.99998945596172

_space_group_name_H-M_alt    "P 1"
_space_group_IT_number       1

loop_
  _space_group_symop_operation_xyz
  'x, y, z'

loop_
  _atom_site_type_symbol
  _atom_site_label
  _atom_site_symmetry_multiplicity
  _atom_site_fract_x
  _atom_site_fract_y
  _atom_site_fract_z
  _atom_site_occupancy
  Li  Li1       1.0  0.09599220537601028  0.33364122509466654  0.797492122787709  1.0000
  Li  Li2       1.0  0.6370360796314714  0.7766503094371373  0.5069107837143676  1.0000
  Li  Li3       1.0  0.11293241866039239  0.5683914015271334  0.5595955400719586  1.0000
  Li  Li4       1.0  0.6987188133292808  0.6821831811109682  0.09670583968148705  1.0000
  O   O1        1.0  0.08034038889744366  0.6977567045172748  0.19987889813603577  1.0000
  O   O2        1.0  0.13910454546468998  0.9768633035895888  0.4648112307196719  1.0000
  O   O3        1.0  0.5490017204305944  0.3209188847991662  0.23313473326784084  1.0000
  O   O4        1.0  0.14916177503391737  0.9788033386956219  0.4270091900883699  1.0000
