data_image0
_chemical_formula_structural       Li4O4
_chemical_formula_sum              "Li4 O4"
_cell_length_a       3.10263483
_cell_length_b       3.1026338289526874
_cell_length_c       7.56992946
_cell_angle_alpha    90.0
_cell_angle_beta     90.0
_cell_angle_gamma    119.99998945596172

_space_group_name_H-M_alt    "P 1"
_space_group_IT_number       1

loop_
  _space_group_symop_operation_xyz
  'x, y, z'

loop_
  _atom_site_type_symbol
  _atom_site_label
  _atom_site_symmetry_multiplicity
  _atom_site_fract_x
  _atom_site_fract_y
  _atom_site_fract_z
  _atom_site_occupancy
  Li  Li1       1.0  0.3012377296157436  0.18890193705034974  0.6747033680380063  1.0000
  Li  Li2       1.0  0.09032164490873384  0.31337205276569813  0.8936661969215152  1.0000
  Li  Li3       1.0  0.1423981590957606  0.6670707727790983  0.05469890474188066  1.0000
  Li  Li4       1.0  0.9163012228857741  0.46927203669214634  0.39104265891496226  1.0000
  O   O1        1.0  0.8583422993256917  0.6792196405725051  0.8255537995233628  1.0000
  O   O2        1.0  0.923854329450208  0.23730354165549272  0.8083248263731999  1.0000
  O   O3        1.0  0.37548001439999723  0.8144526318738752  0.8876156681632477  1.0000
  O   O4        1.0  0.4743476962880635  0.046684763638851656  0.8883010726900116  1.0000
