data_image0
_chemical_formula_structural       Li4O4
_chemical_formula_sum              "Li4 O4"
_cell_length_a       3.10263483
_cell_length_b       3.1026338289526874
_cell_length_c       7.56992946
_cell_angle_alpha    90.0
_cell_angle_beta     90.0
_cell_angle_gamma    119.99998945596172

_space_group_name_H-M_alt    "P 1"
_space_group_IT_number       1

loop_
  _space_group_symop_operation_xyz
  'x, y, z'

loop_
  _atom_site_type_symbol
  _atom_site_label
  _atom_site_symmetry_multiplicity
  _atom_site_fract_x
  _atom_site_fract_y
  _atom_site_fract_z
  _atom_site_occupancy
  Li  Li1       1.0  0.09174083163837565  0.9370992067442216  0.9873680695934866  1.0000
  Li  Li2       1.0  0.43821099657813534  0.5609324389206432  0.042349166973323804  1.0000
  Li  Li3       1.0  0.8505899242484034  0.5125158576703797  0.7134783058294181  1.0000
  Li  Li4       1.0  0.709193294477636  0.9529189102547964  0.2861090543218834  1.0000
  O   O1        1.0  0.03327307988718431  0.9534280023410346  0.6765629842218548  1.0000
  O   O2        1.0  0.3348131715374052  0.7616978558226641  0.4071184929958491  1.0000
  O   O3        1.0  0.5092004212885399  0.2371521421707783  0.14392021972666313  1.0000
  O   O4        1.0  0.33489986087412404  0.18888897327644472  0.19369265758407872  1.0000
