data_image0
_chemical_formula_structural       Li4O4
_chemical_formula_sum              "Li4 O4"
_cell_length_a       3.10263483
_cell_length_b       3.1026338289526874
_cell_length_c       7.56992946
_cell_angle_alpha    90.0
_cell_angle_beta     90.0
_cell_angle_gamma    119.99998945596172

_space_group_name_H-M_alt    "P 1"
_space_group_IT_number       1

loop_
  _space_group_symop_operation_xyz
  'x, y, z'

loop_
  _atom_site_type_symbol
  _atom_site_label
  _atom_site_symmetry_multiplicity
  _atom_site_fract_x
  _atom_site_fract_y
  _atom_site_fract_z
  _atom_site_occupancy
  Li  Li1       1.0  0.8651532212265849  0.5405181077046848  0.9512566349585683  1.0000
  Li  Li2       1.0  0.4630069839890041  0.1727739638616299  0.13278965182978197  1.0000
  Li  Li3       1.0  0.9915062898706424  0.6183753547080535  0.32205924350394355  1.0000
  Li  Li4       1.0  0.5460327608485738  0.3360472442444937  0.3884340523004486  1.0000
  O   O1        1.0  0.5402953882371904  0.9603569352737473  0.4543735481084319  1.0000
  O   O2        1.0  0.24056984934894388  0.02740212573439038  0.3380769126508838  1.0000
  O   O3        1.0  0.2576500446911947  0.07876341694155187  0.46481262966298686  1.0000
  O   O4        1.0  0.8221177225985947  0.433500201352107  0.7742752966836353  1.0000
