data_image0
_chemical_formula_structural       Li4O4
_chemical_formula_sum              "Li4 O4"
_cell_length_a       3.10263483
_cell_length_b       3.1026338289526874
_cell_length_c       7.56992946
_cell_angle_alpha    90.0
_cell_angle_beta     90.0
_cell_angle_gamma    119.99998945596172

_space_group_name_H-M_alt    "P 1"
_space_group_IT_number       1

loop_
  _space_group_symop_operation_xyz
  'x, y, z'

loop_
  _atom_site_type_symbol
  _atom_site_label
  _atom_site_symmetry_multiplicity
  _atom_site_fract_x
  _atom_site_fract_y
  _atom_site_fract_z
  _atom_site_occupancy
  Li  Li1       1.0  0.3396758745281403  0.4880385116044721  0.9768298389317351  1.0000
  Li  Li2       1.0  0.32083373450166164  0.24528145380024924  0.8546208002456641  1.0000
  Li  Li3       1.0  0.5412036377927123  0.3222631190002403  0.9828608212536374  1.0000
  Li  Li4       1.0  0.49952321115691234  0.5950424177104594  0.5888220916460583  1.0000
  O   O1        1.0  0.9608153766941783  0.9323379440785757  0.7940576899417131  1.0000
  O   O2        1.0  0.15488249124896925  0.4861873431891439  0.9115714658087093  1.0000
  O   O3        1.0  0.25146371203504714  0.5156076983529339  0.159315416406276  1.0000
  O   O4        1.0  0.1995417309354366  0.056506472705464716  0.9374193867347795  1.0000
