data_image0
_chemical_formula_structural       Li4O4
_chemical_formula_sum              "Li4 O4"
_cell_length_a       3.10263483
_cell_length_b       3.1026338289526874
_cell_length_c       7.56992946
_cell_angle_alpha    90.0
_cell_angle_beta     90.0
_cell_angle_gamma    119.99998945596172

_space_group_name_H-M_alt    "P 1"
_space_group_IT_number       1

loop_
  _space_group_symop_operation_xyz
  'x, y, z'

loop_
  _atom_site_type_symbol
  _atom_site_label
  _atom_site_symmetry_multiplicity
  _atom_site_fract_x
  _atom_site_fract_y
  _atom_site_fract_z
  _atom_site_occupancy
  Li  Li1       1.0  0.5744187281225663  0.8391675218114187  0.5640970867778989  1.0000
  Li  Li2       1.0  0.9517731285733362  0.9437641020554466  0.39974744661817985  1.0000
  Li  Li3       1.0  0.1041280683021526  0.978831794844325  0.8293238600629933  1.0000
  Li  Li4       1.0  0.737405501402165  0.7719933696810912  0.3628956372147307  1.0000
  O   O1        1.0  0.7078766195982524  0.6479829989195167  0.833666040349307  1.0000
  O   O2        1.0  0.5721063282645389  0.18048812358052402  0.0662492805620758  1.0000
  O   O3        1.0  0.7289941217302243  0.8652119590988931  0.11177071305978359  1.0000
  O   O4        1.0  0.2816035296058885  0.9659222912498286  0.4447427093539247  1.0000
