data_image0
_chemical_formula_structural       Li4O4
_chemical_formula_sum              "Li4 O4"
_cell_length_a       3.10263483
_cell_length_b       3.1026338289526874
_cell_length_c       7.56992946
_cell_angle_alpha    90.0
_cell_angle_beta     90.0
_cell_angle_gamma    119.99998945596172

_space_group_name_H-M_alt    "P 1"
_space_group_IT_number       1

loop_
  _space_group_symop_operation_xyz
  'x, y, z'

loop_
  _atom_site_type_symbol
  _atom_site_label
  _atom_site_symmetry_multiplicity
  _atom_site_fract_x
  _atom_site_fract_y
  _atom_site_fract_z
  _atom_site_occupancy
  Li  Li1       1.0  0.8185671401177927  0.029758510951282346  0.3304770827284713  1.0000
  Li  Li2       1.0  0.7623712095987827  0.8544578601657662  0.17139691919449085  1.0000
  Li  Li3       1.0  0.25481946667900246  0.8990608183017628  0.3119092393095575  1.0000
  Li  Li4       1.0  0.1541601498422409  0.8287722443925958  0.7021927616206227  1.0000
  O   O1        1.0  0.319747153928887  0.797110641361769  0.589961168232378  1.0000
  O   O2        1.0  0.29565445037961524  0.6703106322069914  0.7280656734299065  1.0000
  O   O3        1.0  0.18334724656500612  0.03579263013179457  0.32726803174291774  1.0000
  O   O4        1.0  0.01339951226627889  0.6707823421386294  0.2329460069769116  1.0000
