data_image0
_chemical_formula_structural       Li4O4
_chemical_formula_sum              "Li4 O4"
_cell_length_a       3.10263483
_cell_length_b       3.1026338289526874
_cell_length_c       7.56992946
_cell_angle_alpha    90.0
_cell_angle_beta     90.0
_cell_angle_gamma    119.99998945596172

_space_group_name_H-M_alt    "P 1"
_space_group_IT_number       1

loop_
  _space_group_symop_operation_xyz
  'x, y, z'

loop_
  _atom_site_type_symbol
  _atom_site_label
  _atom_site_symmetry_multiplicity
  _atom_site_fract_x
  _atom_site_fract_y
  _atom_site_fract_z
  _atom_site_occupancy
  Li  Li1       1.0  0.41501355720140154  0.605593513572046  0.12864098640574184  1.0000
  Li  Li2       1.0  0.5636999624726684  0.07067405158733209  0.5707761593911371  1.0000
  Li  Li3       1.0  0.9323249789685804  0.9180875815393001  0.9886770684448081  1.0000
  Li  Li4       1.0  0.45496517841205275  0.7752057159492693  0.1046421012086185  1.0000
  O   O1        1.0  0.4151812047611969  0.5414195476737866  0.8804991919400322  1.0000
  O   O2        1.0  0.5766129682859003  0.525826904938242  0.9542527346704901  1.0000
  O   O3        1.0  0.4322626112082233  0.8965563137583707  0.2974596205325426  1.0000
  O   O4        1.0  0.3997812917109851  0.539572187664703  0.26598252917886356  1.0000
