data_image0
_chemical_formula_structural       Li4O4
_chemical_formula_sum              "Li4 O4"
_cell_length_a       3.10263483
_cell_length_b       3.1026338289526874
_cell_length_c       7.56992946
_cell_angle_alpha    90.0
_cell_angle_beta     90.0
_cell_angle_gamma    119.99998945596172

_space_group_name_H-M_alt    "P 1"
_space_group_IT_number       1

loop_
  _space_group_symop_operation_xyz
  'x, y, z'

loop_
  _atom_site_type_symbol
  _atom_site_label
  _atom_site_symmetry_multiplicity
  _atom_site_fract_x
  _atom_site_fract_y
  _atom_site_fract_z
  _atom_site_occupancy
  Li  Li1       1.0  0.8645517320295824  0.7057507961048088  0.9050912330198742  1.0000
  Li  Li2       1.0  0.6316396669597282  0.8742986058877982  0.5339180107500612  1.0000
  Li  Li3       1.0  0.1804243221546784  0.1029430846859185  0.2424483136875013  1.0000
  Li  Li4       1.0  0.4927714593664021  0.658727277713389  0.24082101524967925  1.0000
  O   O1        1.0  0.24834734416035786  0.323161975105549  0.6354597300791767  1.0000
  O   O2        1.0  0.34414224749946243  0.49596359928141  0.4968922934647537  1.0000
  O   O3        1.0  0.23256624469938458  0.8736862702695163  0.9449591866136409  1.0000
  O   O4        1.0  0.735029077417181  0.021030461642887577  0.503401173730893  1.0000
