data_image0
_chemical_formula_structural       Li4O4
_chemical_formula_sum              "Li4 O4"
_cell_length_a       3.10263483
_cell_length_b       3.1026338289526874
_cell_length_c       7.56992946
_cell_angle_alpha    90.0
_cell_angle_beta     90.0
_cell_angle_gamma    119.99998945596172

_space_group_name_H-M_alt    "P 1"
_space_group_IT_number       1

loop_
  _space_group_symop_operation_xyz
  'x, y, z'

loop_
  _atom_site_type_symbol
  _atom_site_label
  _atom_site_symmetry_multiplicity
  _atom_site_fract_x
  _atom_site_fract_y
  _atom_site_fract_z
  _atom_site_occupancy
  Li  Li1       1.0  0.09821996506855601  0.7076218545876607  0.8798813799437042  1.0000
  Li  Li2       1.0  0.45438192153955015  0.7475832253474124  0.23072325822974094  1.0000
  Li  Li3       1.0  0.4359595942752321  0.9395957001913047  0.45121268804703263  1.0000
  Li  Li4       1.0  0.5629599642286216  0.6495873566372952  0.40795519149969706  1.0000
  O   O1        1.0  0.5675866039354105  0.37517955355890287  0.31958692979291925  1.0000
  O   O2        1.0  0.572835933539622  0.7177989038517367  0.23767124761916136  1.0000
  O   O3        1.0  0.15555177022140754  0.5385635534614295  0.7702967974564068  1.0000
  O   O4        1.0  0.723763636767508  0.0999858350048699  0.5478464327367085  1.0000
