data_image0
_chemical_formula_structural       Li4O4
_chemical_formula_sum              "Li4 O4"
_cell_length_a       3.10263483
_cell_length_b       3.1026338289526874
_cell_length_c       7.56992946
_cell_angle_alpha    90.0
_cell_angle_beta     90.0
_cell_angle_gamma    119.99998945596172

_space_group_name_H-M_alt    "P 1"
_space_group_IT_number       1

loop_
  _space_group_symop_operation_xyz
  'x, y, z'

loop_
  _atom_site_type_symbol
  _atom_site_label
  _atom_site_symmetry_multiplicity
  _atom_site_fract_x
  _atom_site_fract_y
  _atom_site_fract_z
  _atom_site_occupancy
  Li  Li1       1.0  0.7177793244089372  0.6868280732945848  0.5427240554521546  1.0000
  Li  Li2       1.0  0.35619155261952073  0.7519747846251477  0.23245925445027815  1.0000
  Li  Li3       1.0  0.00108312869660665  0.35397640787181217  0.569587686432456  1.0000
  Li  Li4       1.0  0.5995068455931403  0.4814285413916153  0.1718417141720323  1.0000
  O   O1        1.0  0.828034558113302  0.280126168938466  0.3567623272817606  1.0000
  O   O2        1.0  0.8990099004861918  0.2275757976381101  0.32993128491848367  1.0000
  O   O3        1.0  0.1175010548782609  0.3178462865291607  0.3983988517017103  1.0000
  O   O4        1.0  0.26115953045234264  0.33743406629888284  0.041672414874436736  1.0000
