data_image0
_chemical_formula_structural       Li4O4
_chemical_formula_sum              "Li4 O4"
_cell_length_a       3.10263483
_cell_length_b       3.1026338289526874
_cell_length_c       7.56992946
_cell_angle_alpha    90.0
_cell_angle_beta     90.0
_cell_angle_gamma    119.99998945596172

_space_group_name_H-M_alt    "P 1"
_space_group_IT_number       1

loop_
  _space_group_symop_operation_xyz
  'x, y, z'

loop_
  _atom_site_type_symbol
  _atom_site_label
  _atom_site_symmetry_multiplicity
  _atom_site_fract_x
  _atom_site_fract_y
  _atom_site_fract_z
  _atom_site_occupancy
  Li  Li1       1.0  0.2591464487004771  0.012475973116082173  0.804284737992667  1.0000
  Li  Li2       1.0  0.8232653103834338  0.4033143549362066  0.0635382905139874  1.0000
  Li  Li3       1.0  0.466572930256806  0.5582815239615115  0.6148929590899677  1.0000
  Li  Li4       1.0  0.8120984345301423  0.6813034331389503  0.6470617666593128  1.0000
  O   O1        1.0  0.9108319141173098  0.019989878276717832  0.4930764113294437  1.0000
  O   O2        1.0  0.8682273891122492  0.3917977408244866  0.6754390015257279  1.0000
  O   O3        1.0  0.8629963833261058  0.5171538281276113  0.28260903619134226  1.0000
  O   O4        1.0  0.23497431306883598  0.3143290637124385  0.310271418968739  1.0000
