data_image0
_chemical_formula_structural       Li4O4
_chemical_formula_sum              "Li4 O4"
_cell_length_a       3.10263483
_cell_length_b       3.1026338289526874
_cell_length_c       7.56992946
_cell_angle_alpha    90.0
_cell_angle_beta     90.0
_cell_angle_gamma    119.99998945596172

_space_group_name_H-M_alt    "P 1"
_space_group_IT_number       1

loop_
  _space_group_symop_operation_xyz
  'x, y, z'

loop_
  _atom_site_type_symbol
  _atom_site_label
  _atom_site_symmetry_multiplicity
  _atom_site_fract_x
  _atom_site_fract_y
  _atom_site_fract_z
  _atom_site_occupancy
  Li  Li1       1.0  0.1278250895927897  0.3929185905048449  0.13890205841231307  1.0000
  Li  Li2       1.0  0.304194340891371  0.43196371477634443  0.37084813056455346  1.0000
  Li  Li3       1.0  0.19787025786942536  0.9901908901193366  0.22048473698344395  1.0000
  Li  Li4       1.0  0.017161006670793455  0.4590941508294435  0.26606767833088796  1.0000
  O   O1        1.0  0.4930572210455697  0.2282008830431259  0.595799223386873  1.0000
  O   O2        1.0  0.31040067315191777  0.7655592242288307  0.16143396171074187  1.0000
  O   O3        1.0  0.5262897287205952  0.7053189597856413  0.7619574729390379  1.0000
  O   O4        1.0  0.2803616910607971  0.5603336382928248  0.6979442270130818  1.0000
