data_image0
_chemical_formula_structural       Li4O4
_chemical_formula_sum              "Li4 O4"
_cell_length_a       3.10263483
_cell_length_b       3.1026338289526874
_cell_length_c       7.56992946
_cell_angle_alpha    90.0
_cell_angle_beta     90.0
_cell_angle_gamma    119.99998945596172

_space_group_name_H-M_alt    "P 1"
_space_group_IT_number       1

loop_
  _space_group_symop_operation_xyz
  'x, y, z'

loop_
  _atom_site_type_symbol
  _atom_site_label
  _atom_site_symmetry_multiplicity
  _atom_site_fract_x
  _atom_site_fract_y
  _atom_site_fract_z
  _atom_site_occupancy
  Li  Li1       1.0  0.6723419211199797  0.9922954491157867  0.006551348770550192  1.0000
  Li  Li2       1.0  0.9653252221261255  0.8918261659104587  0.24084075339708733  1.0000
  Li  Li3       1.0  0.526242998740102  0.10993907234296785  0.49341923049930614  1.0000
  Li  Li4       1.0  0.47328297193955393  0.9816570547660461  0.38924827873489676  1.0000
  O   O1        1.0  0.3925899992919426  0.33084918790130047  0.016706133515498323  1.0000
  O   O2        1.0  0.6005009441486351  0.9624740946610615  0.5875975711230126  1.0000
  O   O3        1.0  0.7565047017060138  0.2564002887290897  0.32843885878570234  1.0000
  O   O4        1.0  0.41285868375034496  0.49618053954495167  0.684215216966571  1.0000
