data_image0
_chemical_formula_structural       Li4O4
_chemical_formula_sum              "Li4 O4"
_cell_length_a       3.10263483
_cell_length_b       3.1026338289526874
_cell_length_c       7.56992946
_cell_angle_alpha    90.0
_cell_angle_beta     90.0
_cell_angle_gamma    119.99998945596172

_space_group_name_H-M_alt    "P 1"
_space_group_IT_number       1

loop_
  _space_group_symop_operation_xyz
  'x, y, z'

loop_
  _atom_site_type_symbol
  _atom_site_label
  _atom_site_symmetry_multiplicity
  _atom_site_fract_x
  _atom_site_fract_y
  _atom_site_fract_z
  _atom_site_occupancy
  Li  Li1       1.0  0.3794674873448125  0.30194451001006684  0.03133554118882209  1.0000
  Li  Li2       1.0  0.5176821409523953  0.9035553012049786  0.172455128931567  1.0000
  Li  Li3       1.0  0.2698897809429701  0.5207350563157433  0.453699731605238  1.0000
  Li  Li4       1.0  0.10396997413767828  0.9010874891032508  0.6399227254049134  1.0000
  O   O1        1.0  0.4802558627070681  0.664955900692064  0.7951231914768382  1.0000
  O   O2        1.0  0.17512516458134542  0.541634926794778  0.9560146399377629  1.0000
  O   O3        1.0  0.44873314557888566  0.6437115279101064  0.8877186346563386  1.0000
  O   O4        1.0  0.8483190936235374  0.66357810994449  0.5139022656962977  1.0000
