data_image0
_chemical_formula_structural       Li4O4
_chemical_formula_sum              "Li4 O4"
_cell_length_a       3.10263483
_cell_length_b       3.1026338289526874
_cell_length_c       7.56992946
_cell_angle_alpha    90.0
_cell_angle_beta     90.0
_cell_angle_gamma    119.99998945596172

_space_group_name_H-M_alt    "P 1"
_space_group_IT_number       1

loop_
  _space_group_symop_operation_xyz
  'x, y, z'

loop_
  _atom_site_type_symbol
  _atom_site_label
  _atom_site_symmetry_multiplicity
  _atom_site_fract_x
  _atom_site_fract_y
  _atom_site_fract_z
  _atom_site_occupancy
  Li  Li1       1.0  0.026040110893546853  0.5881823152561196  0.281245627531856  1.0000
  Li  Li2       1.0  0.12608411031774835  0.1205712200064255  0.19660203483442729  1.0000
  Li  Li3       1.0  0.26224732192920897  0.694146063429395  0.9756048634076677  1.0000
  Li  Li4       1.0  0.4443914685268453  0.21316053166901838  0.8882133220914952  1.0000
  O   O1        1.0  0.5405525207623825  0.7475346538376435  0.05262525246262584  1.0000
  O   O2        1.0  0.06102979087174276  0.5982294845490657  0.9492950150429138  1.0000
  O   O3        1.0  0.05374517679005919  0.5902530495867193  0.5941854197817378  1.0000
  O   O4        1.0  0.09850538528122144  0.7807982409203049  0.9180398962179606  1.0000
