data_image0
_chemical_formula_structural       Li4O4
_chemical_formula_sum              "Li4 O4"
_cell_length_a       3.10263483
_cell_length_b       3.1026338289526874
_cell_length_c       7.56992946
_cell_angle_alpha    90.0
_cell_angle_beta     90.0
_cell_angle_gamma    119.99998945596172

_space_group_name_H-M_alt    "P 1"
_space_group_IT_number       1

loop_
  _space_group_symop_operation_xyz
  'x, y, z'

loop_
  _atom_site_type_symbol
  _atom_site_label
  _atom_site_symmetry_multiplicity
  _atom_site_fract_x
  _atom_site_fract_y
  _atom_site_fract_z
  _atom_site_occupancy
  Li  Li1       1.0  0.1777150510936636  0.6995807467967481  0.8005350682828976  1.0000
  Li  Li2       1.0  0.716162728416208  0.5075535273081471  0.5786547517489922  1.0000
  Li  Li3       1.0  0.8264313094154829  0.5395989252100506  0.2874211860099649  1.0000
  Li  Li4       1.0  0.462358327322022  0.9521816448217635  0.812560847180757  1.0000
  O   O1        1.0  0.5407473017745232  0.8578138914194469  0.090076892632311  1.0000
  O   O2        1.0  0.044637307795767356  0.979052682188069  0.08470715370168591  1.0000
  O   O3        1.0  0.12147176171389162  0.9465354572388449  0.6325384099697118  1.0000
  O   O4        1.0  0.3544494900069939  0.4118222808688188  0.5714213223579492  1.0000
