data_image0
_chemical_formula_structural       Li4O4
_chemical_formula_sum              "Li4 O4"
_cell_length_a       3.10263483
_cell_length_b       3.1026338289526874
_cell_length_c       7.56992946
_cell_angle_alpha    90.0
_cell_angle_beta     90.0
_cell_angle_gamma    119.99998945596172

_space_group_name_H-M_alt    "P 1"
_space_group_IT_number       1

loop_
  _space_group_symop_operation_xyz
  'x, y, z'

loop_
  _atom_site_type_symbol
  _atom_site_label
  _atom_site_symmetry_multiplicity
  _atom_site_fract_x
  _atom_site_fract_y
  _atom_site_fract_z
  _atom_site_occupancy
  Li  Li1       1.0  0.033700932065670486  0.30347693614340066  0.17126522180191017  1.0000
  Li  Li2       1.0  0.6861741474056027  0.20508296555086858  0.8882529412934388  1.0000
  Li  Li3       1.0  0.19982946816851666  0.6210682228154099  0.1129062695587999  1.0000
  Li  Li4       1.0  0.5761996323670893  0.5682216749056579  0.19559235872468328  1.0000
  O   O1        1.0  0.8250766121947493  0.8512317975982302  0.11409459102304442  1.0000
  O   O2        1.0  0.9537023321179197  0.32222295680021773  0.7223400412687635  1.0000
  O   O3        1.0  0.526424131346932  0.36311299394914  0.9650316886039598  1.0000
  O   O4        1.0  0.4280986924664276  0.13664147407152782  0.38667020221813964  1.0000
