data_image0
_chemical_formula_structural       Li4O4
_chemical_formula_sum              "Li4 O4"
_cell_length_a       3.10263483
_cell_length_b       3.1026338289526874
_cell_length_c       7.56992946
_cell_angle_alpha    90.0
_cell_angle_beta     90.0
_cell_angle_gamma    119.99998945596172

_space_group_name_H-M_alt    "P 1"
_space_group_IT_number       1

loop_
  _space_group_symop_operation_xyz
  'x, y, z'

loop_
  _atom_site_type_symbol
  _atom_site_label
  _atom_site_symmetry_multiplicity
  _atom_site_fract_x
  _atom_site_fract_y
  _atom_site_fract_z
  _atom_site_occupancy
  Li  Li1       1.0  0.9973095528216618  0.005880142582114445  0.2328235560541856  1.0000
  Li  Li2       1.0  0.9239646270546302  0.09673295992570274  0.767324476364009  1.0000
  Li  Li3       1.0  0.3746537586505312  0.8810581264162636  0.7479071138056366  1.0000
  Li  Li4       1.0  0.9748167557570184  0.17474806394396403  0.12957277072659568  1.0000
  O   O1        1.0  0.9509115768073677  0.9018937968288085  0.1074735561071023  1.0000
  O   O2        1.0  0.9626923714607472  0.10303174235599144  0.7547196011226909  1.0000
  O   O3        1.0  0.9065424811147267  0.9717123235529606  0.9567801693517204  1.0000
  O   O4        1.0  0.3940577010976014  0.8050338466959683  0.5490010716451996  1.0000
