data_image0
_chemical_formula_structural       Li4O4
_chemical_formula_sum              "Li4 O4"
_cell_length_a       3.10263483
_cell_length_b       3.1026338289526874
_cell_length_c       7.56992946
_cell_angle_alpha    90.0
_cell_angle_beta     90.0
_cell_angle_gamma    119.99998945596172

_space_group_name_H-M_alt    "P 1"
_space_group_IT_number       1

loop_
  _space_group_symop_operation_xyz
  'x, y, z'

loop_
  _atom_site_type_symbol
  _atom_site_label
  _atom_site_symmetry_multiplicity
  _atom_site_fract_x
  _atom_site_fract_y
  _atom_site_fract_z
  _atom_site_occupancy
  Li  Li1       1.0  0.05087242048692531  0.28366019898138006  0.6735865213630632  1.0000
  Li  Li2       1.0  0.212336275224132  0.9411058890253692  0.5089181687723672  1.0000
  Li  Li3       1.0  0.8078885805525449  0.9263036120198329  0.405264344189856  1.0000
  Li  Li4       1.0  0.17556283891087432  0.770465968828848  0.08196888897346  1.0000
  O   O1        1.0  0.16403616174093827  0.5297094423057427  0.5192027205746976  1.0000
  O   O2        1.0  0.10030963392113001  0.2782671599869815  0.3297091822605829  1.0000
  O   O3        1.0  0.6496855044033367  0.8085270354874989  0.5633157153443342  1.0000
  O   O4        1.0  0.8986723317270844  0.8401815864204814  0.3064327416619186  1.0000
