data_image0
_chemical_formula_structural       Li4O4
_chemical_formula_sum              "Li4 O4"
_cell_length_a       3.10263483
_cell_length_b       3.1026338289526874
_cell_length_c       7.56992946
_cell_angle_alpha    90.0
_cell_angle_beta     90.0
_cell_angle_gamma    119.99998945596172

_space_group_name_H-M_alt    "P 1"
_space_group_IT_number       1

loop_
  _space_group_symop_operation_xyz
  'x, y, z'

loop_
  _atom_site_type_symbol
  _atom_site_label
  _atom_site_symmetry_multiplicity
  _atom_site_fract_x
  _atom_site_fract_y
  _atom_site_fract_z
  _atom_site_occupancy
  Li  Li1       1.0  0.3601653035019723  0.6211060032835292  0.9935382170010172  1.0000
  Li  Li2       1.0  0.7562865429310079  0.04519826968404317  0.28931220375570343  1.0000
  Li  Li3       1.0  0.42342148841930793  0.7670573510297913  0.09664890299299381  1.0000
  Li  Li4       1.0  0.33462535046317754  0.04274049902856092  0.367172738436075  1.0000
  O   O1        1.0  0.13505782508673292  0.6704531720548061  0.02480720542998327  1.0000
  O   O2        1.0  0.0288367777823737  0.6720639620613724  0.15646123452204108  1.0000
  O   O3        1.0  0.38974778426755563  0.7589112860213802  0.4928872754110536  1.0000
  O   O4        1.0  0.3124361476818036  0.7381657207458261  0.3094588558863176  1.0000
