data_image0
_chemical_formula_structural       Li4O4
_chemical_formula_sum              "Li4 O4"
_cell_length_a       3.10263483
_cell_length_b       3.1026338289526874
_cell_length_c       7.56992946
_cell_angle_alpha    90.0
_cell_angle_beta     90.0
_cell_angle_gamma    119.99998945596172

_space_group_name_H-M_alt    "P 1"
_space_group_IT_number       1

loop_
  _space_group_symop_operation_xyz
  'x, y, z'

loop_
  _atom_site_type_symbol
  _atom_site_label
  _atom_site_symmetry_multiplicity
  _atom_site_fract_x
  _atom_site_fract_y
  _atom_site_fract_z
  _atom_site_occupancy
  Li  Li1       1.0  0.4266519350823721  0.8454829537382409  0.1987531706112584  1.0000
  Li  Li2       1.0  0.23619683702747807  0.6699907696168704  0.765126032103967  1.0000
  Li  Li3       1.0  0.9688242122109862  0.6529697782374662  0.5425394854461629  1.0000
  Li  Li4       1.0  0.562906903408912  0.26431549842492075  0.14593262332253687  1.0000
  O   O1        1.0  0.37291659154406176  0.8679004273795616  0.8974824763776095  1.0000
  O   O2        1.0  0.5628899731255976  0.5509573166563797  0.9357781552600279  1.0000
  O   O3        1.0  0.6498727377803917  0.42615893396107296  0.45958733471853996  1.0000
  O   O4        1.0  0.27309375211882525  0.8238213450825036  0.4382092079636237  1.0000
