data_image0
_chemical_formula_structural       Li4O4
_chemical_formula_sum              "Li4 O4"
_cell_length_a       3.10263483
_cell_length_b       3.1026338289526874
_cell_length_c       7.56992946
_cell_angle_alpha    90.0
_cell_angle_beta     90.0
_cell_angle_gamma    119.99998945596172

_space_group_name_H-M_alt    "P 1"
_space_group_IT_number       1

loop_
  _space_group_symop_operation_xyz
  'x, y, z'

loop_
  _atom_site_type_symbol
  _atom_site_label
  _atom_site_symmetry_multiplicity
  _atom_site_fract_x
  _atom_site_fract_y
  _atom_site_fract_z
  _atom_site_occupancy
  Li  Li1       1.0  0.3397467639005143  0.5369644669260367  0.07914626033279148  1.0000
  Li  Li2       1.0  0.6906051463048755  0.6851112046540422  0.8873817468972246  1.0000
  Li  Li3       1.0  0.642851962071397  0.733897379286077  0.44998322215948017  1.0000
  Li  Li4       1.0  0.5419806231437718  0.5011470818710393  0.7972235921700985  1.0000
  O   O1        1.0  0.3385075597876437  0.5026838269850415  0.14712514432230606  1.0000
  O   O2        1.0  0.8111736178864959  0.9843185550183122  0.5394905876243854  1.0000
  O   O3        1.0  0.9855202311760962  0.9138784280336694  0.9461110228607481  1.0000
  O   O4        1.0  0.9547121323238221  0.948881196682759  0.2633247828075582  1.0000
