data_image0
_chemical_formula_structural       Li4O4
_chemical_formula_sum              "Li4 O4"
_cell_length_a       3.10263483
_cell_length_b       3.1026338289526874
_cell_length_c       7.56992946
_cell_angle_alpha    90.0
_cell_angle_beta     90.0
_cell_angle_gamma    119.99998945596172

_space_group_name_H-M_alt    "P 1"
_space_group_IT_number       1

loop_
  _space_group_symop_operation_xyz
  'x, y, z'

loop_
  _atom_site_type_symbol
  _atom_site_label
  _atom_site_symmetry_multiplicity
  _atom_site_fract_x
  _atom_site_fract_y
  _atom_site_fract_z
  _atom_site_occupancy
  Li  Li1       1.0  0.5088007560217207  0.4425569545577446  0.6739137194022575  1.0000
  Li  Li2       1.0  0.3403046468230144  0.2554434933396408  0.037246014099668656  1.0000
  Li  Li3       1.0  0.8758351714751598  0.5168221848008052  0.7339051947620536  1.0000
  Li  Li4       1.0  0.11017506099573993  0.32292305491062834  0.24465142437715803  1.0000
  O   O1        1.0  0.740103556888549  0.5424874539560278  0.3148197738091554  1.0000
  O   O2        1.0  0.24052968220185278  0.5758469234952628  0.3829602964719072  1.0000
  O   O3        1.0  0.2791618366170283  0.6103917400963503  0.5689812765942648  1.0000
  O   O4        1.0  0.6025093601852518  0.6227533623140467  0.04742778591162633  1.0000
