data_image0
_chemical_formula_structural       Li4O4
_chemical_formula_sum              "Li4 O4"
_cell_length_a       3.10263483
_cell_length_b       3.1026338289526874
_cell_length_c       7.56992946
_cell_angle_alpha    90.0
_cell_angle_beta     90.0
_cell_angle_gamma    119.99998945596172

_space_group_name_H-M_alt    "P 1"
_space_group_IT_number       1

loop_
  _space_group_symop_operation_xyz
  'x, y, z'

loop_
  _atom_site_type_symbol
  _atom_site_label
  _atom_site_symmetry_multiplicity
  _atom_site_fract_x
  _atom_site_fract_y
  _atom_site_fract_z
  _atom_site_occupancy
  Li  Li1       1.0  0.9703754108633689  0.612386306166016  0.3485968478840995  1.0000
  Li  Li2       1.0  0.3312314213375913  0.3336096372367674  0.45048377846505083  1.0000
  Li  Li3       1.0  0.7530083304929143  0.45646180407643744  0.5044614937640866  1.0000
  Li  Li4       1.0  0.3636954058161699  0.3614720874857369  0.6982240752697528  1.0000
  O   O1        1.0  0.6642318973843899  0.9110300442027057  0.26505730082111256  1.0000
  O   O2        1.0  0.14549142443565977  0.1524599685221375  0.051372703886618964  1.0000
  O   O3        1.0  0.4240998435056693  0.014701602632907651  0.17262955727750118  1.0000
  O   O4        1.0  0.09004489268863836  0.09636135318820749  0.8326779031682072  1.0000
