data_image0
_chemical_formula_structural       Li4O4
_chemical_formula_sum              "Li4 O4"
_cell_length_a       3.10263483
_cell_length_b       3.1026338289526874
_cell_length_c       7.56992946
_cell_angle_alpha    90.0
_cell_angle_beta     90.0
_cell_angle_gamma    119.99998945596172

_space_group_name_H-M_alt    "P 1"
_space_group_IT_number       1

loop_
  _space_group_symop_operation_xyz
  'x, y, z'

loop_
  _atom_site_type_symbol
  _atom_site_label
  _atom_site_symmetry_multiplicity
  _atom_site_fract_x
  _atom_site_fract_y
  _atom_site_fract_z
  _atom_site_occupancy
  Li  Li1       1.0  0.2920086773706103  0.07349696604234168  0.5296636550481324  1.0000
  Li  Li2       1.0  0.9114547902438801  0.23485111795993419  0.09219775293738852  1.0000
  Li  Li3       1.0  0.39467148566551913  0.6058685738772596  0.8750549901463796  1.0000
  Li  Li4       1.0  0.3968257404896942  0.5506557498145668  0.3407516830820221  1.0000
  O   O1        1.0  0.3816824251079254  0.4645575144629106  0.22520585771062684  1.0000
  O   O2        1.0  0.34197779126201056  0.6165965267315983  0.31445634493066166  1.0000
  O   O3        1.0  0.4503452043295084  0.9163089691823316  0.8360185432410425  1.0000
  O   O4        1.0  0.9180472345912323  0.40052444845718416  0.08781950150934037  1.0000
