data_image0
_chemical_formula_structural       Li4O4
_chemical_formula_sum              "Li4 O4"
_cell_length_a       3.10263483
_cell_length_b       3.1026338289526874
_cell_length_c       7.56992946
_cell_angle_alpha    90.0
_cell_angle_beta     90.0
_cell_angle_gamma    119.99998945596172

_space_group_name_H-M_alt    "P 1"
_space_group_IT_number       1

loop_
  _space_group_symop_operation_xyz
  'x, y, z'

loop_
  _atom_site_type_symbol
  _atom_site_label
  _atom_site_symmetry_multiplicity
  _atom_site_fract_x
  _atom_site_fract_y
  _atom_site_fract_z
  _atom_site_occupancy
  Li  Li1       1.0  0.44631845494694744  0.4124991501732751  0.19546515728231384  1.0000
  Li  Li2       1.0  0.30299352943377755  0.0030800910783597146  0.5439911186723325  1.0000
  Li  Li3       1.0  0.3571680721213326  0.9931240095726537  0.9089150833544273  1.0000
  Li  Li4       1.0  0.47203154251964463  0.2250665610538647  0.06245445043810349  1.0000
  O   O1        1.0  0.658694450495446  0.8754948696681453  0.36857013220479473  1.0000
  O   O2        1.0  0.37797615956569075  0.1414002571032711  0.47252941246292934  1.0000
  O   O3        1.0  0.2497606750952457  0.8708572173001983  0.36994675237807684  1.0000
  O   O4        1.0  0.5450414259617382  0.07181120774935579  0.5275014938201803  1.0000
