data_image0
_chemical_formula_structural       Li4O4
_chemical_formula_sum              "Li4 O4"
_cell_length_a       3.10263483
_cell_length_b       3.1026338289526874
_cell_length_c       7.56992946
_cell_angle_alpha    90.0
_cell_angle_beta     90.0
_cell_angle_gamma    119.99998945596172

_space_group_name_H-M_alt    "P 1"
_space_group_IT_number       1

loop_
  _space_group_symop_operation_xyz
  'x, y, z'

loop_
  _atom_site_type_symbol
  _atom_site_label
  _atom_site_symmetry_multiplicity
  _atom_site_fract_x
  _atom_site_fract_y
  _atom_site_fract_z
  _atom_site_occupancy
  Li  Li1       1.0  0.7459263561540332  0.9522638226561355  0.23485052433893827  1.0000
  Li  Li2       1.0  0.5361140029055775  0.6279816041379593  0.43027766246288746  1.0000
  Li  Li3       1.0  0.10291927593557837  0.8858908182071303  0.011639364752983994  1.0000
  Li  Li4       1.0  0.34875890600066484  0.22600615042911443  0.2878405690846968  1.0000
  O   O1        1.0  0.10660887351227188  0.4839865613707488  0.22411724493131935  1.0000
  O   O2        1.0  0.06347609435274748  0.9105236352460508  0.7430681789235649  1.0000
  O   O3        1.0  0.35943906391112534  0.9066706312071648  0.7307670746710784  1.0000
  O   O4        1.0  0.44213511074855916  0.4517387557601271  0.8347743676571362  1.0000
