data_image0
_chemical_formula_structural       Li4O4
_chemical_formula_sum              "Li4 O4"
_cell_length_a       3.10263483
_cell_length_b       3.1026338289526874
_cell_length_c       7.56992946
_cell_angle_alpha    90.0
_cell_angle_beta     90.0
_cell_angle_gamma    119.99998945596172

_space_group_name_H-M_alt    "P 1"
_space_group_IT_number       1

loop_
  _space_group_symop_operation_xyz
  'x, y, z'

loop_
  _atom_site_type_symbol
  _atom_site_label
  _atom_site_symmetry_multiplicity
  _atom_site_fract_x
  _atom_site_fract_y
  _atom_site_fract_z
  _atom_site_occupancy
  Li  Li1       1.0  0.6866409197070951  0.4852364891040537  0.3882347939333002  1.0000
  Li  Li2       1.0  0.3305899652874871  0.5384945995768269  0.319078477014184  1.0000
  Li  Li3       1.0  0.2626449519241092  0.2045204155997027  0.328640125448576  1.0000
  Li  Li4       1.0  0.5087416307981165  0.6538096230499413  0.13031719978259915  1.0000
  O   O1        1.0  0.0891387800719059  0.5589393403047485  0.8914174728665296  1.0000
  O   O2        1.0  0.982392292964418  0.7148588619583549  0.7946887699778618  1.0000
  O   O3        1.0  0.9315386868173334  0.9843737943549424  0.44540036186728216  1.0000
  O   O4        1.0  0.74033797599472  0.6393071644833395  0.9837762786790805  1.0000
