data_image0
_chemical_formula_structural       Zr12O3
_chemical_formula_sum              "Zr12 O3"
_cell_length_a       5.652952580893364
_cell_length_b       5.651722816978729
_cell_length_c       10.876326908229064
_cell_angle_alpha    74.93806296082411
_cell_angle_beta     89.98787764936452
_cell_angle_gamma    59.97325496144275

_space_group_name_H-M_alt    "P 1"
_space_group_IT_number       1

loop_
  _space_group_symop_operation_xyz
  'x, y, z'

loop_
  _atom_site_type_symbol
  _atom_site_label
  _atom_site_symmetry_multiplicity
  _atom_site_fract_x
  _atom_site_fract_y
  _atom_site_fract_z
  _atom_site_occupancy
  Zr  Zr1       1.0  0.13097133868735344  0.8006724686550877  0.9572575036688802  1.0000
  Zr  Zr2       1.0  0.8460579190739637  0.6222733865012113  0.20026886725737558  1.0000
  Zr  Zr3       1.0  0.8106390343903018  0.7991611051907928  0.46359689184966113  1.0000
  Zr  Zr4       1.0  0.12504105471194904  0.748097230284511  0.9837243790440269  1.0000
  Zr  Zr5       1.0  0.3628636759208912  0.9648086349638643  0.13772434885557505  1.0000
  Zr  Zr6       1.0  0.7092883433624397  0.8674119517472616  0.43235940003347206  1.0000
  Zr  Zr7       1.0  0.9057754019649433  0.41447052680311636  0.41038187662893844  1.0000
  Zr  Zr8       1.0  0.7244296825502268  0.20336461544133044  0.37095015916124074  1.0000
  Zr  Zr9       1.0  0.17724199618713232  0.8627235160311759  0.7476869090189646  1.0000
  Zr  Zr10      1.0  0.9243899761526109  0.14144002699387725  0.13547510253820327  1.0000
  Zr  Zr11      1.0  0.8394085972402863  0.16951804417667304  0.14517149096091853  1.0000
  Zr  Zr12      1.0  0.9439902020412916  0.26496304057140563  0.27134552709280335  1.0000
  O   O1        1.0  0.939308850502683  0.868536951110805  0.8250502482874662  1.0000
  O   O2        1.0  0.6774076037772332  0.3375959864096103  0.5056094195504799  1.0000
  O   O3        1.0  0.7279035216502052  0.6925042722970893  0.6410757853823856  1.0000
