data_image0
_chemical_formula_structural       Li3
_chemical_formula_sum              "Li3"
_cell_length_a       3.0786742874458892
_cell_length_b       3.0786724400000005
_cell_length_c       7.665407794912054
_cell_angle_alpha    78.41531399066481
_cell_angle_beta     78.41531201680868
_cell_angle_gamma    59.99999672804063

_space_group_name_H-M_alt    "P 1"
_space_group_IT_number       1

loop_
  _space_group_symop_operation_xyz
  'x, y, z'

loop_
  _atom_site_type_symbol
  _atom_site_label
  _atom_site_symmetry_multiplicity
  _atom_site_fract_x
  _atom_site_fract_y
  _atom_site_fract_z
  _atom_site_occupancy
  Li  Li1       1.0  0.07000761760353669  0.27464292816375035  0.29925329647066023  1.0000
  Li  Li2       1.0  0.16938726804950122  0.8102166658390786  0.8304360232188515  1.0000
  Li  Li3       1.0  0.7606043165564031  0.9151426170110568  0.8703101069304786  1.0000
