# generated using pymatgen
data_LiCoO2
_symmetry_space_group_name_H-M   'P 1'
_cell_length_a   2.93855002
_cell_length_b   2.93855002
_cell_length_c   9.85992500
_cell_angle_alpha   90.00000000
_cell_angle_beta   90.00000000
_cell_angle_gamma   120.00000000
_symmetry_Int_Tables_number   1
_chemical_formula_structural   LiCoO2
_chemical_formula_sum   'Li2 Co2 O4'
_cell_volume   73.73444549
_cell_formula_units_Z   2
loop_
 _symmetry_equiv_pos_site_id
 _symmetry_equiv_pos_as_xyz
  1  'x, y, z'
loop_
 _atom_type_symbol
 _atom_type_oxidation_number
  Li+  1.0
  Co3+  3.0
  O2-  -2.0
loop_
 _atom_site_type_symbol
 _atom_site_label
 _atom_site_symmetry_multiplicity
 _atom_site_fract_x
 _atom_site_fract_y
 _atom_site_fract_z
 _atom_site_occupancy
  Li+  Li0  1  0.33333333  0.66666667  0.75820800  1.0
  Li+  Li1  1  0.66666667  0.33333333  0.25820800  1.0
  Co3+  Co2  1  0.33333333  0.66666667  0.50051300  1.0
  Co3+  Co3  1  0.66666667  0.33333333  0.00051300  1.0
  O2-  O4  1  0.00000000  0.00000000  0.38676700  1.0
  O2-  O5  1  0.00000000  0.00000000  0.88676700  1.0
  O2-  O6  1  0.33333333  0.66666667  0.11344300  1.0
  O2-  O7  1  0.66666667  0.33333333  0.61344300  1.0
