# generated using pymatgen
data_Li21La9Zr5O34
_symmetry_space_group_name_H-M   'P 1'
_cell_length_a   13.20454200
_cell_length_b   28.63531300
_cell_length_c   20.78762600
_cell_angle_alpha   90.00000000
_cell_angle_beta   90.00000000
_cell_angle_gamma   89.99998399
_symmetry_Int_Tables_number   1
_chemical_formula_structural   Li21La9Zr5O34
_chemical_formula_sum   'Li84 La36 Zr20 O136'
_cell_volume   7860.13800861
_cell_formula_units_Z   4
loop_
 _symmetry_equiv_pos_site_id
 _symmetry_equiv_pos_as_xyz
  1  'x, y, z'
loop_
 _atom_site_type_symbol
 _atom_site_label
 _atom_site_symmetry_multiplicity
 _atom_site_fract_x
 _atom_site_fract_y
 _atom_site_fract_z
 _atom_site_occupancy
  Li  Li0  1  0.41412959  0.85451648  0.14593566  1
  Li  Li1  1  0.12781914  0.32129414  0.10404369  1
  Li  Li2  1  0.88741148  0.87263025  0.14350525  1
  Li  Li3  1  0.96177167  0.92723397  0.05114125  1
  Li  Li4  1  0.11326506  0.73198156  0.11914584  1
  Li  Li5  1  0.90280190  0.25240179  0.12429723  1
  Li  Li6  1  0.27649403  0.15642024  0.12788917  1
  Li  Li7  1  0.73276026  0.64552880  0.12247815  1
  Li  Li8  1  0.34687589  0.78309189  0.10858563  1
  Li  Li9  1  0.65625356  0.30683713  0.13318848  1
  Li  Li10  1  0.90096256  0.68668253  0.15250293  1
  Li  Li11  1  0.04796679  0.28047454  0.18790828  1
  Li  Li12  1  0.09072574  0.19644123  0.15019719  1
  Li  Li13  1  0.94657038  0.78934551  0.17456446  1
  Li  Li14  1  0.77796474  0.96182076  0.10907713  1
  Li  Li15  1  0.99519965  0.48953328  0.12624966  1
  Li  Li16  1  0.09073916  0.41898101  0.18754291  1
  Li  Li17  1  0.86601042  0.04011873  0.06906804  1
  Li  Li18  1  0.66309344  0.40142755  0.20333409  1
  Li  Li19  1  0.34103491  0.92436137  0.20984050  1
  Li  Li20  1  0.25141395  0.55214548  0.19584659  1
  Li  Li21  1  0.75614096  0.05774285  0.18011601  1
  Li  Li22  1  0.92094389  0.45982616  0.21711031  1
  Li  Li23  1  0.97794360  0.99046306  0.14837423  1
  Li  Li24  1  0.06109429  0.69758820  0.22074097  1
  Li  Li25  1  0.84147784  0.84879389  0.25303224  1
  Li  Li26  1  0.16443801  0.34830863  0.23807577  1
  Li  Li27  1  0.43817912  0.80474775  0.23153538  1
  Li  Li28  1  0.93768605  0.20425397  0.22745513  1
  Li  Li29  1  0.68413586  0.66161885  0.24494602  1
  Li  Li30  1  0.33724824  0.16375319  0.24777100  1
  Li  Li31  1  0.57669564  0.32004297  0.24830678  1
  Li  Li32  1  0.62420216  0.05219818  0.26072132  1
  Li  Li33  1  0.39832897  0.54746380  0.27048386  1
  Li  Li34  1  0.74701837  0.46157541  0.27280820  1
  Li  Li35  1  0.23003871  0.96576312  0.26054528  1
  Li  Li36  1  0.83077800  0.12000002  0.27209335  1
  Li  Li37  1  0.16556753  0.62041250  0.28239337  1
  Li  Li38  1  0.40593672  0.00099306  0.27973181  1
  Li  Li39  1  0.58417991  0.59479829  0.30762610  1
  Li  Li40  1  0.58817805  0.50608019  0.30630247  1
  Li  Li41  1  0.44034026  0.08605431  0.29910722  1
  Li  Li42  1  0.43976185  0.23357607  0.31551732  1
  Li  Li43  1  0.58830389  0.81337612  0.30807772  1
  Li  Li44  1  0.58296094  0.72553495  0.30586386  1
  Li  Li45  1  0.40504784  0.31858401  0.33496135  1
  Li  Li46  1  0.17375466  0.70364645  0.34101712  1
  Li  Li47  1  0.83074140  0.20037164  0.34244008  1
  Li  Li48  1  0.74871673  0.85787075  0.34149683  1
  Li  Li49  1  0.22906187  0.35383642  0.35521896  1
  Li  Li50  1  0.40002919  0.77218412  0.34406701  1
  Li  Li51  1  0.62366348  0.26762794  0.35416157  1
  Li  Li52  1  0.57709529  0.99907726  0.36670413  1
  Li  Li53  1  0.33714737  0.15568257  0.36666729  1
  Li  Li54  1  0.68273992  0.65763872  0.36935906  1
  Li  Li55  1  0.93722310  0.11584380  0.38705689  1
  Li  Li56  1  0.43745868  0.51567364  0.38259999  1
  Li  Li57  1  0.16225158  0.97016188  0.37904772  1
  Li  Li58  1  0.83998254  0.47004441  0.36178528  1
  Li  Li59  1  0.06156509  0.61463434  0.40378237  1
  Li  Li60  1  0.97728194  0.32939997  0.46601032  1
  Li  Li61  1  0.92249797  0.86158206  0.39617992  1
  Li  Li62  1  0.25564645  0.76790046  0.41922955  1
  Li  Li63  1  0.75599401  0.26190336  0.43447736  1
  Li  Li64  1  0.34012790  0.39506531  0.40546396  1
  Li  Li65  1  0.66467399  0.91824235  0.41099237  1
  Li  Li66  1  0.86564470  0.27909000  0.54580373  1
  Li  Li67  1  0.09081353  0.89548536  0.43200838  1
  Li  Li68  1  0.96169636  0.83289274  0.50436063  1
  Li  Li69  1  0.77719523  0.35726638  0.50537939  1
  Li  Li70  1  0.94749195  0.53055088  0.43639990  1
  Li  Li71  1  0.09051261  0.12338366  0.46425897  1
  Li  Li72  1  0.04747661  0.03989411  0.42658454  1
  Li  Li73  1  0.90385971  0.62868983  0.46137867  1
  Li  Li74  1  0.65600277  0.01288454  0.48145848  1
  Li  Li75  1  0.34745323  0.53608656  0.50687380  1
  Li  Li76  1  0.27616605  0.16302070  0.48665168  1
  Li  Li77  1  0.73891216  0.67150006  0.48216433  1
  Li  Li78  1  0.90283499  0.06794122  0.49046333  1
  Li  Li79  1  0.11541222  0.58791890  0.50369331  1
  Li  Li80  1  0.95981337  0.39211781  0.56292047  1
  Li  Li81  1  0.88283289  0.44877662  0.47282694  1
  Li  Li82  1  0.12815699  0.99924483  0.51078378  1
  Li  Li83  1  0.41296718  0.46504487  0.46801707  1
  La  La84  1  0.75383141  0.16596885  0.13774496  1
  La  La85  1  0.25808041  0.65058154  0.13818269  1
  La  La86  1  0.51577959  0.98716210  0.16411657  1
  La  La87  1  0.50580841  0.48224174  0.18270200  1
  La  La88  1  0.90286699  0.35818288  0.16837735  1
  La  La89  1  0.12313352  0.85808826  0.16036714  1
  La  La90  1  0.64529246  0.84909822  0.16797540  1
  La  La91  1  0.37359769  0.35325832  0.19045868  1
  La  La92  1  0.49048928  0.23501677  0.16942691  1
  La  La93  1  0.53093870  0.72635590  0.15834023  1
  La  La94  1  0.24385142  0.05968736  0.19112600  1
  La  La95  1  0.76036825  0.55327856  0.19867455  1
  La  La96  1  0.25711700  0.45694002  0.27483275  1
  La  La97  1  0.75799319  0.95607886  0.25228861  1
  La  La98  1  0.99901012  0.28790406  0.32675060  1
  La  La99  1  0.01980944  0.78753376  0.30529320  1
  La  La100  1  0.37667853  0.65901831  0.30764801  1
  La  La101  1  0.63256094  0.16007392  0.30727954  1
  La  La102  1  0.11922556  0.15991548  0.30730139  1
  La  La103  1  0.88908767  0.66305183  0.31814276  1
  La  La104  1  0.01276253  0.53289137  0.30115842  1
  La  La105  1  0.99885996  0.03220492  0.28773098  1
  La  La106  1  0.75754969  0.36356464  0.36208551  1
  La  La107  1  0.25869791  0.86275675  0.34080215  1
  La  La108  1  0.76050580  0.76680310  0.41595831  1
  La  La109  1  0.24393836  0.25979343  0.42362483  1
  La  La110  1  0.53121015  0.59265795  0.45687398  1
  La  La111  1  0.49018327  0.08458970  0.44513312  1
  La  La112  1  0.90246305  0.96278465  0.44581881  1
  La  La113  1  0.12012807  0.46241316  0.45444865  1
  La  La114  1  0.64326937  0.46969067  0.44679109  1
  La  La115  1  0.37334120  0.96640683  0.42427326  1
  La  La116  1  0.50733560  0.83812909  0.43240663  1
  La  La117  1  0.51521488  0.33232358  0.45054885  1
  La  La118  1  0.26420451  0.66848272  0.47819325  1
  La  La119  1  0.75346191  0.15385684  0.47696105  1
  Zr  Zr120  1  0.50795712  0.11700515  0.16888245  1
  Zr  Zr121  1  0.00964064  0.60434299  0.16444537  1
  Zr  Zr122  1  0.99562612  0.11238373  0.15857247  1
  Zr  Zr123  1  0.50629755  0.61034589  0.17598812  1
  Zr  Zr124  1  0.75830534  0.26508730  0.23896417  1
  Zr  Zr125  1  0.24505208  0.25492575  0.24186241  1
  Zr  Zr126  1  0.76751826  0.75306334  0.23499330  1
  Zr  Zr127  1  0.25044193  0.75686356  0.22242823  1
  Zr  Zr128  1  0.00628767  0.40899551  0.32423692  1
  Zr  Zr129  1  0.50637409  0.90713317  0.29319968  1
  Zr  Zr130  1  0.50526348  0.41233602  0.32143878  1
  Zr  Zr131  1  0.00627081  0.91142966  0.29033617  1
  Zr  Zr132  1  0.24686532  0.56250099  0.39425599  1
  Zr  Zr133  1  0.76569866  0.56439648  0.37868967  1
  Zr  Zr134  1  0.24488629  0.06451669  0.37241335  1
  Zr  Zr135  1  0.75791947  0.05494086  0.37560047  1
  Zr  Zr136  1  0.50970409  0.70898961  0.43823579  1
  Zr  Zr137  1  0.99548545  0.20746353  0.45590545  1
  Zr  Zr138  1  0.01071145  0.71568255  0.45282584  1
  Zr  Zr139  1  0.50750800  0.20251031  0.44581758  1
  O  O140  1  0.51129727  0.31042873  0.14311798  1
  O  O141  1  0.49020039  0.80092105  0.12463070  1
  O  O142  1  0.64020356  0.59617851  0.13347240  1
  O  O143  1  0.36652763  0.10504313  0.13310106  1
  O  O144  1  0.96554688  0.42773492  0.14139596  1
  O  O145  1  0.01001698  0.87356478  0.09006719  1
  O  O146  1  0.05242991  0.67237454  0.13529617  1
  O  O147  1  0.25938168  0.73207141  0.12480602  1
  O  O148  1  0.74174471  0.24948101  0.13930888  1
  O  O149  1  0.15422306  0.58380167  0.14103404  1
  O  O150  1  0.94534207  0.18283384  0.13904580  1
  O  O151  1  0.85451835  0.09270235  0.12201875  1
  O  O152  1  0.80340920  0.80800171  0.17433218  1
  O  O153  1  0.21168357  0.30471437  0.17343047  1
  O  O154  1  0.31623384  0.20919569  0.17844580  1
  O  O155  1  0.71036086  0.70403946  0.16853189  1
  O  O156  1  0.68117621  0.00103593  0.15757606  1
  O  O157  1  0.34379215  0.50135228  0.19471068  1
  O  O158  1  0.23262812  0.40258167  0.19770774  1
  O  O159  1  0.76089545  0.90632136  0.16075054  1
  O  O160  1  0.85954173  0.62235092  0.14984111  1
  O  O161  1  0.94795731  0.53551318  0.18461927  1
  O  O162  1  0.14313966  0.13460399  0.14994002  1
  O  O163  1  0.68494901  0.47607988  0.19266719  1
  O  O164  1  0.32743798  0.98827468  0.18934664  1
  O  O165  1  0.05737043  0.04579288  0.17535088  1
  O  O166  1  0.09507789  0.77336581  0.19363458  1
  O  O167  1  0.91223991  0.27353376  0.22499753  1
  O  O168  1  0.35339630  0.60525490  0.21634633  1
  O  O169  1  0.66482083  0.11145918  0.20744156  1
  O  O170  1  0.48153570  0.90364957  0.18794761  1
  O  O171  1  0.51812885  0.40429181  0.21962261  1
  O  O172  1  0.29883457  0.82269676  0.18345076  1
  O  O173  1  0.71975925  0.33602278  0.21239269  1
  O  O174  1  0.48702488  0.05434290  0.22152660  1
  O  O175  1  0.54373167  0.55267342  0.23750110  1
  O  O176  1  0.47823377  0.15947968  0.24126385  1
  O  O177  1  0.91512424  0.72408589  0.23185807  1
  O  O178  1  0.61453732  0.77700069  0.23576819  1
  O  O179  1  0.02814766  0.35875494  0.25107134  1
  O  O180  1  0.54006289  0.65899524  0.24084567  1
  O  O181  1  0.09766910  0.22442995  0.23562547  1
  O  O182  1  0.39181876  0.28523866  0.25489874  1
  O  O183  1  0.97854852  0.85172422  0.22737580  1
  O  O184  1  0.06587053  0.46161953  0.25918996  1
  O  O185  1  0.94405159  0.96369009  0.23325619  1
  O  O186  1  0.21359274  0.68497308  0.24664466  1
  O  O187  1  0.78910653  0.19026976  0.25046173  1
  O  O188  1  0.02322459  0.61773852  0.25983957  1
  O  O189  1  0.97527287  0.11897166  0.25502500  1
  O  O190  1  0.15577974  0.90873198  0.24767892  1
  O  O191  1  0.85846122  0.41985281  0.28813182  1
  O  O192  1  0.40104015  0.73987104  0.24866577  1
  O  O193  1  0.60354050  0.24611948  0.26269936  1
  O  O194  1  0.56842717  0.97361177  0.27525332  1
  O  O195  1  0.78924184  0.04002671  0.27687884  1
  O  O196  1  0.19836148  0.54445262  0.30122988  1
  O  O197  1  0.65080017  0.87628115  0.27639640  1
  O  O198  1  0.45012319  0.47947323  0.30527884  1
  O  O199  1  0.35836066  0.38478958  0.31063728  1
  O  O200  1  0.27657490  0.11076757  0.29051337  1
  O  O201  1  0.73408720  0.61131955  0.29887559  1
  O  O202  1  0.81700466  0.52037690  0.30058484  1
  O  O203  1  0.18110060  0.02061221  0.29788186  1
  O  O204  1  0.18139350  0.29918364  0.31638537  1
  O  O205  1  0.82698632  0.79798844  0.31565320  1
  O  O206  1  0.72939680  0.70897636  0.31477362  1
  O  O207  1  0.27639404  0.20869986  0.32398569  1
  O  O208  1  0.35917370  0.93465676  0.30479648  1
  O  O209  1  0.45074440  0.84004725  0.30999242  1
  O  O210  1  0.65011333  0.44258655  0.33836856  1
  O  O211  1  0.20561143  0.77720812  0.31533346  1
  O  O212  1  0.78943808  0.27940043  0.33782582  1
  O  O213  1  0.56748686  0.34573484  0.33930795  1
  O  O214  1  0.60329044  0.07337786  0.35204852  1
  O  O215  1  0.39777709  0.58030226  0.36666734  1
  O  O216  1  0.85838081  0.90012111  0.32564065  1
  O  O217  1  0.15469956  0.41064119  0.36828296  1
  O  O218  1  0.97525018  0.20074913  0.35948866  1
  O  O219  1  0.03031338  0.70998249  0.35612494  1
  O  O220  1  0.78868666  0.12956620  0.36412877  1
  O  O221  1  0.21000634  0.63497196  0.37319273  1
  O  O222  1  0.94343128  0.35608796  0.38070813  1
  O  O223  1  0.06159726  0.85690232  0.35563031  1
  O  O224  1  0.97862833  0.46980823  0.38462895  1
  O  O225  1  0.39174052  0.03419162  0.35967259  1
  O  O226  1  0.09778298  0.09524006  0.37887666  1
  O  O227  1  0.54006601  0.65983327  0.37376583  1
  O  O228  1  0.02638033  0.96188299  0.36264594  1
  O  O229  1  0.61218107  0.54235761  0.37850987  1
  O  O230  1  0.91693723  0.59128151  0.38400223  1
  O  O231  1  0.47811925  0.15993898  0.37343414  1
  O  O232  1  0.54586831  0.76726400  0.37832337  1
  O  O233  1  0.48608419  0.26503092  0.39312542  1
  O  O234  1  0.72033943  0.98375830  0.40255089  1
  O  O235  1  0.29771723  0.49704836  0.43150481  1
  O  O236  1  0.51925721  0.91578646  0.39494243  1
  O  O237  1  0.48087948  0.41567045  0.42701545  1
  O  O238  1  0.66434593  0.20822144  0.40741490  1
  O  O239  1  0.35629322  0.71384583  0.39785429  1
  O  O240  1  0.91200322  0.04661325  0.38960897  1
  O  O241  1  0.09598522  0.54741897  0.42813389  1
  O  O242  1  0.05720827  0.27397368  0.43906965  1
  O  O243  1  0.32688453  0.33106564  0.42585651  1
  O  O244  1  0.68618017  0.84434618  0.42148301  1
  O  O245  1  0.14294483  0.18510704  0.46461053  1
  O  O246  1  0.93167859  0.77819259  0.46104202  1
  O  O247  1  0.85892386  0.68822379  0.43149939  1
  O  O248  1  0.75966911  0.41280018  0.45404460  1
  O  O249  1  0.23075981  0.91630358  0.41820888  1
  O  O250  1  0.34599232  0.81894185  0.42187775  1
  O  O251  1  0.68042483  0.31823207  0.45672394  1
  O  O252  1  0.70736953  0.61316919  0.44604482  1
  O  O253  1  0.31596630  0.11025809  0.43600248  1
  O  O254  1  0.21222903  0.01468313  0.44117856  1
  O  O255  1  0.80177625  0.51054927  0.44087596  1
  O  O256  1  0.85417127  0.22680394  0.49247384  1
  O  O257  1  0.94525424  0.13694170  0.47552299  1
  O  O258  1  0.15802080  0.73349432  0.46826307  1
  O  O259  1  0.74170625  0.07021045  0.47537337  1
  O  O260  1  0.26205776  0.58796829  0.49295336  1
  O  O261  1  0.04319797  0.64733757  0.48573713  1
  O  O262  1  0.00665383  0.44582437  0.52404633  1
  O  O263  1  0.96029987  0.89236354  0.47392615  1
  O  O264  1  0.36621320  0.21433249  0.48179216  1
  O  O265  1  0.64712585  0.72082918  0.47925079  1
  O  O266  1  0.48990848  0.51815419  0.49027418  1
  O  O267  1  0.51078821  0.00898951  0.47151080  1
  O  O268  1  0.99375279  0.30700993  0.11099258  1
  O  O269  1  0.90033567  0.98034448  0.07430466  1
  O  O270  1  0.57251396  0.16880889  0.11403727  1
  O  O271  1  0.44037293  0.65794486  0.11529662  1
  O  O272  1  0.44359935  0.66300415  0.50076496  1
  O  O273  1  0.57220158  0.15065379  0.50064302  1
  O  O274  1  0.89939711  0.33874060  0.54018775  1
  O  O275  1  0.99416793  0.01338660  0.50367969  1
