# generated using pymatgen
data_Li42La16Zr10O65
_symmetry_space_group_name_H-M   'P 1'
_cell_length_a   12.70453900
_cell_length_b   13.20454200
_cell_length_c   31.80681200
_cell_angle_alpha   90.00000000
_cell_angle_beta   90.00000000
_cell_angle_gamma   90.00000000
_symmetry_Int_Tables_number   1
_chemical_formula_structural   Li42La16Zr10O65
_chemical_formula_sum   'Li84 La32 Zr20 O130'
_cell_volume   5335.83504325
_cell_formula_units_Z   2
loop_
 _symmetry_equiv_pos_site_id
 _symmetry_equiv_pos_as_xyz
  1  'x, y, z'
loop_
 _atom_site_type_symbol
 _atom_site_label
 _atom_site_symmetry_multiplicity
 _atom_site_fract_x
 _atom_site_fract_y
 _atom_site_fract_z
 _atom_site_occupancy
  Li  Li0  1  0.92569644  0.92946307  0.08748839  1
  Li  Li1  1  0.57228831  0.04386193  0.08168229  1
  Li  Li2  1  0.08070752  0.52505969  0.07233553  1
  Li  Li3  1  0.36943852  0.57026055  0.08184721  1
  Li  Li4  1  0.59511226  0.70244768  0.10825075  1
  Li  Li5  1  0.90046328  0.33939654  0.10630583  1
  Li  Li6  1  0.09527897  0.80585725  0.10975405  1
  Li  Li7  1  0.40463088  0.16138440  0.11485266  1
  Li  Li8  1  0.70014383  0.89341598  0.13043836  1
  Li  Li9  1  0.80385039  0.08063631  0.13128714  1
  Li  Li10  1  0.20511439  0.64932579  0.11344320  1
  Li  Li11  1  0.25099967  0.46875236  0.11678013  1
  Li  Li12  1  0.86710940  0.24717670  0.16740461  1
  Li  Li13  1  0.63139688  0.75244174  0.17307868  1
  Li  Li14  1  0.36701867  0.27167298  0.16276691  1
  Li  Li15  1  0.12996874  0.74052299  0.17160112  1
  Li  Li16  1  0.32194271  0.10544032  0.19200689  1
  Li  Li17  1  0.18181260  0.89983758  0.19894328  1
  Li  Li18  1  0.81130864  0.41586974  0.19716941  1
  Li  Li19  1  0.68942898  0.58881500  0.20226423  1
  Li  Li20  1  0.44080599  0.33531980  0.23221446  1
  Li  Li21  1  0.05974076  0.66856197  0.23750189  1
  Li  Li22  1  0.94903061  0.15780255  0.23289823  1
  Li  Li23  1  0.54941868  0.84510880  0.23873949  1
  Li  Li24  1  0.35159462  0.94258694  0.23853277  1
  Li  Li25  1  0.15547021  0.06266121  0.23783179  1
  Li  Li26  1  0.61427915  0.43312133  0.23932718  1
  Li  Li27  1  0.89078830  0.56867306  0.23977561  1
  Li  Li28  1  0.37742603  0.43206775  0.29806472  1
  Li  Li29  1  0.14321602  0.56779466  0.29917526  1
  Li  Li30  1  0.64902011  0.93429609  0.30292763  1
  Li  Li31  1  0.86659072  0.06788736  0.30113136  1
  Li  Li32  1  0.05437522  0.16718507  0.30307323  1
  Li  Li33  1  0.44631952  0.83847492  0.30695389  1
  Li  Li34  1  0.55649702  0.32846529  0.30496128  1
  Li  Li35  1  0.94590916  0.66653366  0.30745918  1
  Li  Li36  1  0.19502683  0.40975564  0.33929862  1
  Li  Li37  1  0.31042144  0.58696976  0.34263212  1
  Li  Li38  1  0.69345615  0.09309244  0.34210771  1
  Li  Li39  1  0.81223358  0.91187275  0.34470475  1
  Li  Li40  1  0.37606088  0.74989607  0.37420775  1
  Li  Li41  1  0.12598778  0.24998676  0.37422456  1
  Li  Li42  1  0.87599630  0.74986328  0.37424967  1
  Li  Li43  1  0.62631155  0.25007519  0.37423743  1
  Li  Li44  1  0.81214133  0.58813679  0.40390426  1
  Li  Li45  1  0.69321824  0.40711203  0.40640204  1
  Li  Li46  1  0.31072370  0.91265943  0.40564750  1
  Li  Li47  1  0.19487553  0.09047118  0.40919763  1
  Li  Li48  1  0.94586299  0.83351120  0.44082130  1
  Li  Li49  1  0.55621035  0.17156714  0.44351047  1
  Li  Li50  1  0.44636169  0.66185637  0.44168736  1
  Li  Li51  1  0.05414825  0.33286582  0.44530506  1
  Li  Li52  1  0.86539323  0.43239699  0.44752909  1
  Li  Li53  1  0.64846395  0.56596310  0.44556283  1
  Li  Li54  1  0.14427708  0.93269330  0.44935200  1
  Li  Li55  1  0.37645617  0.06773400  0.45030252  1
  Li  Li56  1  0.88993811  0.93131241  0.50851858  1
  Li  Li57  1  0.61359862  0.06729996  0.50929162  1
  Li  Li58  1  0.15510220  0.43712073  0.51044432  1
  Li  Li59  1  0.35189224  0.55792817  0.50999495  1
  Li  Li60  1  0.54965648  0.65535321  0.50995371  1
  Li  Li61  1  0.94883208  0.34217346  0.51544627  1
  Li  Li62  1  0.05929742  0.83218211  0.51067260  1
  Li  Li63  1  0.44068664  0.16487641  0.51616127  1
  Li  Li64  1  0.68924126  0.91159011  0.54626087  1
  Li  Li65  1  0.81078331  0.08400671  0.55123382  1
  Li  Li66  1  0.18236636  0.59919913  0.54975212  1
  Li  Li67  1  0.32172010  0.39448203  0.55630724  1
  Li  Li68  1  0.86682076  0.25267518  0.58087434  1
  Li  Li69  1  0.63112273  0.74767627  0.57548171  1
  Li  Li70  1  0.36696400  0.22818658  0.58577287  1
  Li  Li71  1  0.12996112  0.75967032  0.57637459  1
  Li  Li72  1  0.24863522  0.03025848  0.63192726  1
  Li  Li73  1  0.19813026  0.84922424  0.63552202  1
  Li  Li74  1  0.80322077  0.41867817  0.61698433  1
  Li  Li75  1  0.70021816  0.60727147  0.61808315  1
  Li  Li76  1  0.40479397  0.33831984  0.63360061  1
  Li  Li77  1  0.09352882  0.69137669  0.63725804  1
  Li  Li78  1  0.90090950  0.16109404  0.64168703  1
  Li  Li79  1  0.59628338  0.79773664  0.64038761  1
  Li  Li80  1  0.36247187  0.92683311  0.66672740  1
  Li  Li81  1  0.07666090  0.97557608  0.67663703  1
  Li  Li82  1  0.57200260  0.45628780  0.66678755  1
  Li  Li83  1  0.92512552  0.56920882  0.66083099  1
  La  La84  1  0.24894540  0.99014367  0.11609033  1
  La  La85  1  0.74668033  0.51449486  0.11708768  1
  La  La86  1  0.87966411  0.74242222  0.16949116  1
  La  La87  1  0.37880175  0.75561001  0.17081268  1
  La  La88  1  0.62290236  0.26671252  0.16572010  1
  La  La89  1  0.12546944  0.24442082  0.16749799  1
  La  La90  1  0.74989785  0.99869700  0.22026581  1
  La  La91  1  0.25048002  0.50136876  0.21552093  1
  La  La92  1  0.50149743  0.12008756  0.26980682  1
  La  La93  1  0.00079956  0.37856516  0.26674811  1
  La  La94  1  0.49902775  0.62341216  0.26916769  1
  La  La95  1  0.00023617  0.88086497  0.27030892  1
  La  La96  1  0.75040012  0.49722977  0.31914942  1
  La  La97  1  0.24979226  0.00343205  0.32235859  1
  La  La98  1  0.37749989  0.25006692  0.37422991  1
  La  La99  1  0.87763990  0.25013604  0.37430357  1
  La  La100  1  0.12353155  0.75016306  0.37428450  1
  La  La101  1  0.62437695  0.75016353  0.37424224  1
  La  La102  1  0.24998467  0.49690924  0.42614241  1
  La  La103  1  0.75014194  0.00306889  0.42936468  1
  La  La104  1  0.00040219  0.61920178  0.47813708  1
  La  La105  1  0.49903550  0.87686807  0.47957128  1
  La  La106  1  0.00064373  0.12145003  0.48169654  1
  La  La107  1  0.50140257  0.38004782  0.47872374  1
  La  La108  1  0.25084359  0.99908788  0.53306642  1
  La  La109  1  0.74963663  0.50159655  0.52828470  1
  La  La110  1  0.87944811  0.75740053  0.57890362  1
  La  La111  1  0.37825078  0.74487799  0.57801233  1
  La  La112  1  0.62283944  0.23357890  0.58283148  1
  La  La113  1  0.12536929  0.25566930  0.58089530  1
  La  La114  1  0.74712781  0.98589188  0.63140664  1
  La  La115  1  0.24870925  0.50890094  0.63244465  1
  Zr  Zr116  1  0.99885380  0.99462190  0.16289896  1
  Zr  Zr117  1  0.50607582  0.99627616  0.15861870  1
  Zr  Zr118  1  0.49536823  0.50888644  0.16068191  1
  Zr  Zr119  1  0.00733275  0.50057977  0.16015927  1
  Zr  Zr120  1  0.75137666  0.24878123  0.26841494  1
  Zr  Zr121  1  0.75117312  0.75070246  0.27197852  1
  Zr  Zr122  1  0.25261028  0.25069021  0.26955725  1
  Zr  Zr123  1  0.25196382  0.75242137  0.27281253  1
  Zr  Zr124  1  0.50222249  0.49797349  0.37358484  1
  Zr  Zr125  1  0.00150349  0.49682078  0.37250338  1
  Zr  Zr126  1  0.00138616  0.00329774  0.37610669  1
  Zr  Zr127  1  0.50218920  0.00218029  0.37488467  1
  Zr  Zr128  1  0.25214890  0.74794240  0.47576524  1
  Zr  Zr129  1  0.25256488  0.24937337  0.47882138  1
  Zr  Zr130  1  0.75107112  0.74932581  0.47644111  1
  Zr  Zr131  1  0.75112150  0.25136278  0.48007291  1
  Zr  Zr132  1  0.00715271  0.99940028  0.58808493  1
  Zr  Zr133  1  0.49583393  0.99156145  0.58831209  1
  Zr  Zr134  1  0.50569803  0.50391433  0.58985576  1
  Zr  Zr135  1  0.99865434  0.50454254  0.58541669  1
  O  O136  1  0.23443872  0.79904021  0.12831476  1
  O  O137  1  0.26495984  0.17438124  0.13081034  1
  O  O138  1  0.73717728  0.69949061  0.12674755  1
  O  O139  1  0.76466221  0.32500525  0.12605034  1
  O  O140  1  0.54367982  0.84258981  0.14168598  1
  O  O141  1  0.95636873  0.14149310  0.14593926  1
  O  O142  1  0.04188205  0.65422655  0.14019017  1
  O  O143  1  0.47255913  0.35936529  0.14479631  1
  O  O144  1  0.85100577  0.93362407  0.13831900  1
  O  O145  1  0.65356406  0.04393264  0.13151317  1
  O  O146  1  0.15232522  0.42678214  0.15537947  1
  O  O147  1  0.34552492  0.57184346  0.14848849  1
  O  O148  1  0.35233943  0.94806763  0.17710218  1
  O  O149  1  0.15021846  0.03892542  0.17857686  1
  O  O150  1  0.65162881  0.45806833  0.17965960  1
  O  O151  1  0.85089137  0.55624178  0.17926788  1
  O  O152  1  0.46904094  0.14963622  0.17498772  1
  O  O153  1  0.03479615  0.84670750  0.19063993  1
  O  O154  1  0.95928541  0.35468146  0.18546665  1
  O  O155  1  0.53616360  0.65222881  0.19339708  1
  O  O156  1  0.77565640  0.18619851  0.20736990  1
  O  O157  1  0.72417662  0.81246444  0.21086336  1
  O  O158  1  0.28957949  0.30277120  0.21006573  1
  O  O159  1  0.21756431  0.69582845  0.21311076  1
  O  O160  1  0.93675814  0.01600023  0.22539684  1
  O  O161  1  0.55959823  0.98402652  0.22247541  1
  O  O162  1  0.05177656  0.52846079  0.22630884  1
  O  O163  1  0.44151341  0.47870882  0.22735488  1
  O  O164  1  0.09995834  0.20912816  0.24454991  1
  O  O165  1  0.40279860  0.79381134  0.24863769  1
  O  O166  1  0.59507258  0.28539054  0.24524506  1
  O  O167  1  0.90518738  0.71490261  0.24904361  1
  O  O168  1  0.30754379  0.09867321  0.25479452  1
  O  O169  1  0.19732763  0.90528091  0.25862172  1
  O  O170  1  0.80419284  0.39759589  0.25673833  1
  O  O171  1  0.69408175  0.60236487  0.26043965  1
  O  O172  1  0.19560011  0.40107642  0.27970082  1
  O  O173  1  0.30368106  0.60194403  0.28360765  1
  O  O174  1  0.69639693  0.09547086  0.28203475  1
  O  O175  1  0.80397786  0.90384542  0.28458767  1
  O  O176  1  0.40521942  0.28307301  0.29284569  1
  O  O177  1  0.09795220  0.71653407  0.29546876  1
  O  O178  1  0.90416069  0.21197314  0.29014261  1
  O  O179  1  0.59837713  0.79181590  0.29440221  1
  O  O180  1  0.94398038  0.52310495  0.30977629  1
  O  O181  1  0.55155614  0.47119193  0.31024410  1
  O  O182  1  0.05154153  0.02670595  0.31267062  1
  O  O183  1  0.44543781  0.97965081  0.31183207  1
  O  O184  1  0.71619809  0.30107303  0.33010543  1
  O  O185  1  0.78543356  0.69492229  0.33237137  1
  O  O186  1  0.21769613  0.19350087  0.33108148  1
  O  O187  1  0.28438808  0.81157594  0.33353599  1
  O  O188  1  0.03515793  0.34939732  0.34954581  1
  O  O189  1  0.46698545  0.64656858  0.35287387  1
  O  O190  1  0.53692164  0.14908641  0.35102952  1
  O  O191  1  0.96568326  0.85489340  0.35468521  1
  O  O192  1  0.34795006  0.44200422  0.35934241  1
  O  O193  1  0.15572616  0.55074761  0.35962535  1
  O  O194  1  0.65685846  0.94863768  0.36233632  1
  O  O195  1  0.84716881  0.06002348  0.36158839  1
  O  O196  1  0.84719183  0.44031741  0.38699266  1
  O  O197  1  0.65683778  0.55163989  0.38614492  1
  O  O198  1  0.15568878  0.94956541  0.38889131  1
  O  O199  1  0.34787874  0.05815495  0.38905077  1
  O  O200  1  0.96570028  0.64510566  0.39416152  1
  O  O201  1  0.53684786  0.35106047  0.39742031  1
  O  O202  1  0.46708723  0.85342855  0.39534305  1
  O  O203  1  0.03529068  0.15067719  0.39916921  1
  O  O204  1  0.28465057  0.68877059  0.41509149  1
  O  O205  1  0.21794597  0.30643256  0.41728174  1
  O  O206  1  0.78508254  0.80499754  0.41600398  1
  O  O207  1  0.71594154  0.19901892  0.41840959  1
  O  O208  1  0.44565423  0.52066698  0.43663631  1
  O  O209  1  0.05242858  0.47347193  0.43588727  1
  O  O210  1  0.55129914  0.02877594  0.43829677  1
  O  O211  1  0.94341258  0.97699892  0.43877048  1
  O  O212  1  0.59817833  0.70851650  0.45408647  1
  O  O213  1  0.90384077  0.28830334  0.45825576  1
  O  O214  1  0.09822180  0.78389782  0.45306098  1
  O  O215  1  0.40513301  0.21687705  0.45558333  1
  O  O216  1  0.80376366  0.59616916  0.46395366  1
  O  O217  1  0.69622941  0.40470886  0.46645081  1
  O  O218  1  0.30424657  0.89839455  0.46477035  1
  O  O219  1  0.19604979  0.09870064  0.46882036  1
  O  O220  1  0.69430535  0.89773945  0.48810275  1
  O  O221  1  0.80415368  0.10268305  0.49172829  1
  O  O222  1  0.19750017  0.59524796  0.48998647  1
  O  O223  1  0.30736790  0.40145381  0.49352876  1
  O  O224  1  0.90524691  0.78492478  0.49933368  1
  O  O225  1  0.59482765  0.21488923  0.50319485  1
  O  O226  1  0.40286752  0.70658768  0.50003533  1
  O  O227  1  0.09974723  0.29060523  0.50378354  1
  O  O228  1  0.44153533  0.02152654  0.52151658  1
  O  O229  1  0.05154773  0.97185797  0.52208592  1
  O  O230  1  0.55927699  0.51620589  0.52600191  1
  O  O231  1  0.93669114  0.48393449  0.52289742  1
  O  O232  1  0.21809886  0.80557964  0.53540007  1
  O  O233  1  0.28968531  0.19769575  0.53837470  1
  O  O234  1  0.72350330  0.68764420  0.53751718  1
  O  O235  1  0.77548312  0.31413467  0.54109671  1
  O  O236  1  0.53602824  0.84821574  0.55533028  1
  O  O237  1  0.95891143  0.14513006  0.56305280  1
  O  O238  1  0.03523387  0.65278581  0.55820268  1
  O  O239  1  0.46872556  0.35056622  0.57339671  1
  O  O240  1  0.85065505  0.94357894  0.56910971  1
  O  O241  1  0.65173825  0.04261722  0.56873987  1
  O  O242  1  0.15014086  0.46007770  0.56974892  1
  O  O243  1  0.35182788  0.55196650  0.57142375  1
  O  O244  1  0.34638436  0.92851824  0.60099655  1
  O  O245  1  0.15223109  0.07323396  0.59279704  1
  O  O246  1  0.65311863  0.45613274  0.61694690  1
  O  O247  1  0.85076370  0.56541863  0.60985367  1
  O  O248  1  0.47284441  0.14111452  0.60405794  1
  O  O249  1  0.04148596  0.84550379  0.60794885  1
  O  O250  1  0.95652321  0.35762588  0.60235580  1
  O  O251  1  0.54310674  0.65759814  0.60685004  1
  O  O252  1  0.76471503  0.17559775  0.62241016  1
  O  O253  1  0.73793109  0.79871826  0.62184685  1
  O  O254  1  0.26483485  0.32538120  0.61785204  1
  O  O255  1  0.23330561  0.70073142  0.62001379  1
  O  O256  1  0.22390233  0.55199357  0.07224380  1
  O  O257  1  0.55745948  0.56227353  0.10477253  1
  O  O258  1  0.43529752  0.02948898  0.09856343  1
  O  O259  1  0.06185853  0.94426712  0.10305342  1
  O  O260  1  0.94416201  0.47255080  0.10057148  1
  O  O261  1  0.94383254  0.02765767  0.64776181  1
  O  O262  1  0.06136640  0.55384052  0.64537433  1
  O  O263  1  0.43497263  0.47039146  0.64992423  1
  O  O264  1  0.56155696  0.93852290  0.64355263  1
  O  O265  1  0.21895688  0.94711311  0.67631516  1
