# generated using pymatgen
data_Li18La8Zr5O31
_symmetry_space_group_name_H-M   'P 1'
_cell_length_a   12.70453900
_cell_length_b   13.20454200
_cell_length_c   31.80681200
_cell_angle_alpha   90.00000000
_cell_angle_beta   90.00000000
_cell_angle_gamma   90.00000000
_symmetry_Int_Tables_number   1
_chemical_formula_structural   Li18La8Zr5O31
_chemical_formula_sum   'Li72 La32 Zr20 O124'
_cell_volume   5335.83504325
_cell_formula_units_Z   4
loop_
 _symmetry_equiv_pos_site_id
 _symmetry_equiv_pos_as_xyz
  1  'x, y, z'
loop_
 _atom_site_type_symbol
 _atom_site_label
 _atom_site_symmetry_multiplicity
 _atom_site_fract_x
 _atom_site_fract_y
 _atom_site_fract_z
 _atom_site_occupancy
  Li  Li0  1  0.69222090  0.94028651  0.12657050  1
  Li  Li1  1  0.79182309  0.13527389  0.13075720  1
  Li  Li2  1  0.19769437  0.57800866  0.13003776  1
  Li  Li3  1  0.31020344  0.41838778  0.13113884  1
  Li  Li4  1  0.86993866  0.26285379  0.17598584  1
  Li  Li5  1  0.62756343  0.77096146  0.16521187  1
  Li  Li6  1  0.41544674  0.21412854  0.13520772  1
  Li  Li7  1  0.12650154  0.76288246  0.12954089  1
  Li  Li8  1  0.31983543  0.12628625  0.19781997  1
  Li  Li9  1  0.17082108  0.86777524  0.19561462  1
  Li  Li10  1  0.76709026  0.47840131  0.21935237  1
  Li  Li11  1  0.67693649  0.61808700  0.19475843  1
  Li  Li12  1  0.41723515  0.31488649  0.20396375  1
  Li  Li13  1  0.08640248  0.66513990  0.20451933  1
  Li  Li14  1  0.95004528  0.15074626  0.24122006  1
  Li  Li15  1  0.54542573  0.84736207  0.23815975  1
  Li  Li16  1  0.34092321  0.94312878  0.23642792  1
  Li  Li17  1  0.14965068  0.05449913  0.23301285  1
  Li  Li18  1  0.57647524  0.42171765  0.24289676  1
  Li  Li19  1  0.92665044  0.58513304  0.23989170  1
  Li  Li20  1  0.39497893  0.41814674  0.29328568  1
  Li  Li21  1  0.10922784  0.58002199  0.29251768  1
  Li  Li22  1  0.64544455  0.93599559  0.30339103  1
  Li  Li23  1  0.84527270  0.06173917  0.30527160  1
  Li  Li24  1  0.05702144  0.16129148  0.30665964  1
  Li  Li25  1  0.44216016  0.83634369  0.30604857  1
  Li  Li26  1  0.56269655  0.32664338  0.30984183  1
  Li  Li27  1  0.94310797  0.67503381  0.30822144  1
  Li  Li28  1  0.19906884  0.41747319  0.33613207  1
  Li  Li29  1  0.30201647  0.58190649  0.33455089  1
  Li  Li30  1  0.68690881  0.09044305  0.34721269  1
  Li  Li31  1  0.80898833  0.90791790  0.34592147  1
  Li  Li32  1  0.37340710  0.74999783  0.37424407  1
  Li  Li33  1  0.12671705  0.24999925  0.37424258  1
  Li  Li34  1  0.87494800  0.74996972  0.37423686  1
  Li  Li35  1  0.62724553  0.24997086  0.37422930  1
  Li  Li36  1  0.80900952  0.59200820  0.40258800  1
  Li  Li37  1  0.68692382  0.40948457  0.40119451  1
  Li  Li38  1  0.30199459  0.91812442  0.41390529  1
  Li  Li39  1  0.19899172  0.08258499  0.41234409  1
  Li  Li40  1  0.94312250  0.82495107  0.44024461  1
  Li  Li41  1  0.56265964  0.17335992  0.43868250  1
  Li  Li42  1  0.44232218  0.66359598  0.44247720  1
  Li  Li43  1  0.05705656  0.33865978  0.44179877  1
  Li  Li44  1  0.84526133  0.43820734  0.44318052  1
  Li  Li45  1  0.64541030  0.56397406  0.44503834  1
  Li  Li46  1  0.10919736  0.91996061  0.45598546  1
  Li  Li47  1  0.39485405  0.08185499  0.45515474  1
  Li  Li48  1  0.92656012  0.91486202  0.50861359  1
  Li  Li49  1  0.57643255  0.07825905  0.50556202  1
  Li  Li50  1  0.14956926  0.44549529  0.51548423  1
  Li  Li51  1  0.34106358  0.55688931  0.51201662  1
  Li  Li52  1  0.54577797  0.65280844  0.51041078  1
  Li  Li53  1  0.95007764  0.34927078  0.50725305  1
  Li  Li54  1  0.08636423  0.83485384  0.54395250  1
  Li  Li55  1  0.41723804  0.18505592  0.54445295  1
  Li  Li56  1  0.67689942  0.88189834  0.55363882  1
  Li  Li57  1  0.76706315  0.02170941  0.52912834  1
  Li  Li58  1  0.17101190  0.63218882  0.55287512  1
  Li  Li59  1  0.31983168  0.37385404  0.55069782  1
  Li  Li60  1  0.86990851  0.23727320  0.57251731  1
  Li  Li61  1  0.62749733  0.72920182  0.58328511  1
  Li  Li62  1  0.41540737  0.28586292  0.61321798  1
  Li  Li63  1  0.12658359  0.73708764  0.61896853  1
  Li  Li64  1  0.31015900  0.08163655  0.61731544  1
  Li  Li65  1  0.19765338  0.92196340  0.61843471  1
  Li  Li66  1  0.79158039  0.36427258  0.61791993  1
  Li  Li67  1  0.69233636  0.55993006  0.62184640  1
  La  La68  1  0.25261043  0.97474648  0.11797077  1
  La  La69  1  0.75493036  0.48172416  0.12312682  1
  La  La70  1  0.87336624  0.74877046  0.16545086  1
  La  La71  1  0.37737025  0.75619010  0.16593960  1
  La  La72  1  0.62808050  0.25653679  0.17409719  1
  La  La73  1  0.11753580  0.25098898  0.17053012  1
  La  La74  1  0.74525219  0.99850136  0.21740441  1
  La  La75  1  0.25318494  0.49290024  0.21816010  1
  La  La76  1  0.50156567  0.12056617  0.27032710  1
  La  La77  1  0.00284956  0.37479180  0.26850593  1
  La  La78  1  0.49684235  0.62727661  0.26691828  1
  La  La79  1  0.99862268  0.88031259  0.27733915  1
  La  La80  1  0.75123542  0.50157600  0.31720395  1
  La  La81  1  0.25104298  -0.00004468  0.32371406  1
  La  La82  1  0.37754344  0.24999861  0.37424236  1
  La  La83  1  0.87826955  0.24998873  0.37423102  1
  La  La84  1  0.12828379  0.74999188  0.37424101  1
  La  La85  1  0.62221503  0.75000823  0.37422803  1
  La  La86  1  0.25105769  0.50003839  0.42477632  1
  La  La87  1  0.75123102  0.99847921  0.43125817  1
  La  La88  1  0.99865774  0.61967291  0.47116201  1
  La  La89  1  0.49683412  0.87274298  0.48153085  1
  La  La90  1  0.00284430  0.12518629  0.47998367  1
  La  La91  1  0.50159339  0.37946520  0.47816517  1
  La  La92  1  0.25316000  0.00700875  0.53031323  1
  La  La93  1  0.74530025  0.50151604  0.53107024  1
  La  La94  1  0.87325199  0.75125685  0.58303882  1
  La  La95  1  0.37743379  0.74377971  0.58252203  1
  La  La96  1  0.62804794  0.24343134  0.57435535  1
  La  La97  1  0.11757191  0.24897247  0.57795057  1
  La  La98  1  0.75480825  0.01823603  0.62534673  1
  La  La99  1  0.25256947  0.52528520  0.63049557  1
  Zr  Zr100  1  0.98420298  0.01246016  0.16102898  1
  Zr  Zr101  1  0.50050340  0.01358966  0.16049265  1
  Zr  Zr102  1  0.49639922  0.50516252  0.15873389  1
  Zr  Zr103  1  0.00642412  0.49167216  0.16004341  1
  Zr  Zr104  1  0.75410731  0.24557506  0.27308138  1
  Zr  Zr105  1  0.75086709  0.75264196  0.26937919  1
  Zr  Zr106  1  0.25162138  0.24142434  0.27103885  1
  Zr  Zr107  1  0.24660099  0.75652302  0.26919752  1
  Zr  Zr108  1  0.49795946  0.50185908  0.37084348  1
  Zr  Zr109  1  0.00262635  0.49972706  0.36999470  1
  Zr  Zr110  1  0.00263082  0.00025340  0.37850050  1
  Zr  Zr111  1  0.49796893  0.99815655  0.37761374  1
  Zr  Zr112  1  0.24665173  0.74347710  0.47927521  1
  Zr  Zr113  1  0.25164968  0.25857688  0.47745930  1
  Zr  Zr114  1  0.75086529  0.74739039  0.47906590  1
  Zr  Zr115  1  0.75411675  0.25444527  0.47537876  1
  Zr  Zr116  1  0.00633715  0.00829920  0.58844987  1
  Zr  Zr117  1  0.49632370  0.99483281  0.58971532  1
  Zr  Zr118  1  0.50056865  0.48642049  0.58799960  1
  Zr  Zr119  1  0.98418860  0.48755343  0.58751454  1
  O  O120  1  0.83864416  0.94679987  0.14975139  1
  O  O121  1  0.65149186  0.07500984  0.14821597  1
  O  O122  1  0.16205631  0.43236321  0.14824385  1
  O  O123  1  0.34263671  0.56064406  0.14927167  1
  O  O124  1  0.34733945  0.93995238  0.17734746  1
  O  O125  1  0.15100790  0.07325959  0.16822014  1
  O  O126  1  0.64632623  0.45084056  0.18414029  1
  O  O127  1  0.86001144  0.55215546  0.18220529  1
  O  O128  1  0.46874724  0.16261383  0.19137666  1
  O  O129  1  0.06124860  0.88088579  0.14994944  1
  O  O130  1  0.98204723  0.34828262  0.19340425  1
  O  O131  1  0.53027315  0.65491599  0.18741143  1
  O  O132  1  0.79012991  0.18258017  0.21305306  1
  O  O133  1  0.71738003  0.80955792  0.20946064  1
  O  O134  1  0.27515287  0.27977208  0.20597312  1
  O  O135  1  0.21617778  0.72731919  0.20512745  1
  O  O136  1  0.95769417  0.01235544  0.22316632  1
  O  O137  1  0.55729955  0.98492042  0.22421710  1
  O  O138  1  0.06781718  0.53132269  0.22711015  1
  O  O139  1  0.43816337  0.46749674  0.22641378  1
  O  O140  1  0.09618110  0.20338222  0.24782135  1
  O  O141  1  0.40159111  0.79423606  0.24870257  1
  O  O142  1  0.60321896  0.27984327  0.25034103  1
  O  O143  1  0.90787581  0.72995220  0.24354319  1
  O  O144  1  0.30437265  0.09053754  0.25670333  1
  O  O145  1  0.18577814  0.90660500  0.25487214  1
  O  O146  1  0.81341869  0.39240589  0.26156435  1
  O  O147  1  0.69904647  0.60292912  0.25521069  1
  O  O148  1  0.20148741  0.39213477  0.27792188  1
  O  O149  1  0.30001657  0.60633833  0.27579755  1
  O  O150  1  0.69562819  0.09424938  0.28638076  1
  O  O151  1  0.80356564  0.90605823  0.28443526  1
  O  O152  1  0.40362107  0.27207102  0.29597530  1
  O  O153  1  0.09579698  0.72638241  0.29658841  1
  O  O154  1  0.90479124  0.20315298  0.29659461  1
  O  O155  1  0.59905567  0.78979190  0.29294180  1
  O  O156  1  0.95248289  0.53241525  0.30649858  1
  O  O157  1  0.55096897  0.47221138  0.30635357  1
  O  O158  1  0.05753587  0.02200429  0.31658118  1
  O  O159  1  0.44639177  0.97711511  0.31538138  1
  O  O160  1  0.71738189  0.30488158  0.33300705  1
  O  O161  1  0.78826418  0.69625244  0.33027316  1
  O  O162  1  0.21480795  0.18844433  0.33174210  1
  O  O163  1  0.28401411  0.81169159  0.33091293  1
  O  O164  1  0.03630478  0.35198998  0.34886149  1
  O  O165  1  0.46488042  0.65078481  0.34764498  1
  O  O166  1  0.53688971  0.14535133  0.35757694  1
  O  O167  1  0.96427104  0.85338470  0.35428608  1
  O  O168  1  0.34634821  0.44555879  0.35594711  1
  O  O169  1  0.15502971  0.55659893  0.35562110  1
  O  O170  1  0.65352024  0.94188564  0.36436810  1
  O  O171  1  0.84628802  0.05110020  0.36531060  1
  O  O172  1  0.84627280  0.44889842  0.38315774  1
  O  O173  1  0.65353463  0.55810234  0.38407330  1
  O  O174  1  0.15503974  0.94338976  0.39285732  1
  O  O175  1  0.34635806  0.05450174  0.39252083  1
  O  O176  1  0.96424515  0.64656001  0.39422197  1
  O  O177  1  0.53687062  0.35463890  0.39083518  1
  O  O178  1  0.46487223  0.84925642  0.40079791  1
  O  O179  1  0.03636242  0.14796407  0.39966188  1
  O  O180  1  0.28404307  0.68828025  0.41756816  1
  O  O181  1  0.21481837  0.31154743  0.41675627  1
  O  O182  1  0.78828069  0.80379396  0.41817642  1
  O  O183  1  0.71736448  0.19513604  0.41546026  1
  O  O184  1  0.44644788  0.52285927  0.43309031  1
  O  O185  1  0.05756072  0.47798961  0.43191511  1
  O  O186  1  0.55095058  0.02780113  0.44211188  1
  O  O187  1  0.95250429  0.96755361  0.44199275  1
  O  O188  1  0.59907537  0.71022387  0.45546745  1
  O  O189  1  0.90480174  0.29685440  0.45187812  1
  O  O190  1  0.09581297  0.77359912  0.45191177  1
  O  O191  1  0.40367679  0.22792538  0.45253278  1
  O  O192  1  0.80356974  0.59392119  0.46406707  1
  O  O193  1  0.69561042  0.40573827  0.46205384  1
  O  O194  1  0.30004938  0.89365727  0.47265309  1
  O  O195  1  0.20156316  0.10784197  0.47057199  1
  O  O196  1  0.69906085  0.89712729  0.49323139  1
  O  O197  1  0.81344370  0.10760899  0.48689301  1
  O  O198  1  0.18584602  0.59339128  0.49361767  1
  O  O199  1  0.30441456  0.40945713  0.49178856  1
  O  O200  1  0.90784505  0.77002630  0.50495200  1
  O  O201  1  0.60325548  0.22013914  0.49814363  1
  O  O202  1  0.40166710  0.70579415  0.49978211  1
  O  O203  1  0.09619174  0.29657464  0.50066125  1
  O  O204  1  0.43811428  0.03250867  0.52205080  1
  O  O205  1  0.06775933  0.96868537  0.52137974  1
  O  O206  1  0.55738906  0.51509818  0.52427380  1
  O  O207  1  0.95786144  0.48762560  0.52535937  1
  O  O208  1  0.21620242  0.77273225  0.54334290  1
  O  O209  1  0.27516333  0.22023780  0.54253150  1
  O  O210  1  0.71705431  0.69058553  0.53895751  1
  O  O211  1  0.79010540  0.31743134  0.53540714  1
  O  O212  1  0.53023015  0.84515609  0.56100739  1
  O  O213  1  0.98197639  0.15173932  0.55512408  1
  O  O214  1  0.06176805  0.61877600  0.59867754  1
  O  O215  1  0.46882465  0.33742986  0.55708232  1
  O  O216  1  0.85991138  0.94786470  0.56627138  1
  O  O217  1  0.64627221  0.04921644  0.56433006  1
  O  O218  1  0.15100013  0.42655210  0.58028476  1
  O  O219  1  0.34733256  0.55998608  0.57110990  1
  O  O220  1  0.34257698  0.93938122  0.59917489  1
  O  O221  1  0.16197520  0.06756073  0.60024859  1
  O  O222  1  0.65163492  0.42508124  0.60029064  1
  O  O223  1  0.83879551  0.55386416  0.59863487  1
  Li  Li224  1  0.90323817  0.20448475  0.64226421  1
  Li  Li225  1  0.61525702  0.83121380  0.64700256  1
  Li  Li226  1  0.61529732  0.66878567  0.10154508  1
  Li  Li227  1  0.90326360  0.29536499  0.10623166  1
  O  O228  1  0.39761558  0.07807951  0.11567490  1
  O  O229  1  0.58017904  0.53483520  0.10601741  1
  O  O230  1  0.93107977  0.43821822  0.10878572  1
  O  O231  1  0.26499254  0.80690401  0.11356270  1
  O  O232  1  0.73678514  0.68827353  0.13206793  1
  O  O233  1  0.76431769  0.29385031  0.12942426  1
  O  O234  1  0.54930367  0.87399860  0.13902936  1
  O  O235  1  0.95277105  0.15835560  0.13694543  1
  O  O236  1  0.05394563  0.63951229  0.14536766  1
  O  O237  1  0.44909926  0.35595389  0.14503531  1
  O  O238  1  0.44908592  0.14406602  0.60340058  1
  O  O239  1  0.05383400  0.86039080  0.60310073  1
  O  O240  1  0.95251904  0.34180291  0.61163371  1
  O  O241  1  0.54926718  0.62608218  0.60941830  1
  O  O242  1  0.76423841  0.20611469  0.61908693  1
  O  O243  1  0.73665508  0.81170628  0.61642625  1
  O  O244  1  0.26514438  0.69313782  0.63492183  1
  O  O245  1  0.93097625  0.06164802  0.63971794  1
  O  O246  1  0.58006020  0.96511723  0.64244052  1
  O  O247  1  0.39765337  0.42190101  0.63277774  1
