data_image0
_chemical_formula_structural       Li2Co2O4Li2Co2O4Li2Co2O4Li2Co2O4Li2Co2O4Li2Co2O4
_chemical_formula_sum              "Li12 Co12 O24"
_cell_length_a       15.342077451450212
_cell_length_b       2.93855002
_cell_length_c       40.03323381754363
_cell_angle_alpha    90.0
_cell_angle_beta     90.0
_cell_angle_gamma    112.52401782285094

_space_group_name_H-M_alt    "P 1"
_space_group_IT_number       1

loop_
  _space_group_symop_operation_xyz
  'x, y, z'

loop_
  _atom_site_type_symbol
  _atom_site_label
  _atom_site_symmetry_multiplicity
  _atom_site_fract_x
  _atom_site_fract_y
  _atom_site_fract_z
  _atom_site_occupancy
  Li  Li1       1.0  0.2890218453861019  0.5780436957722039  0.3855565725416404  1.0000
  Li  Li2       1.0  0.8320168556188646  0.1640337062377294  0.40029907972328366  1.0000
  Co  Co1       1.0  0.5427466862206117  0.5854933774412235  0.3841952494557139  1.0000
  Co  Co2       1.0  0.0857416964533746  0.1714833879067493  0.3989377566373571  1.0000
  O   O1        1.0  0.6837965813627793  0.8675931627255593  0.39355744911658314  1.0000
  O   O2        1.0  0.18379658136277957  0.8675931627255593  0.39355744911658314  1.0000
  O   O3        1.0  0.9880818031223402  0.4761636112446808  0.4041737050884204  1.0000
  O   O4        1.0  0.4020917852365152  0.30418356547303055  0.3746886916096845  1.0000
  Li  Li3       1.0  0.41800687350468974  0.33601375200937966  0.4297840932020195  1.0000
  Li  Li4       1.0  0.9610018837374525  0.9220037624749051  0.44452660038366265  1.0000
  Co  Co3       1.0  0.6717317143391995  0.3434634336783994  0.4284227701160929  1.0000
  Co  Co4       1.0  0.21472672457196215  0.9294534441439251  0.4431652772977361  1.0000
  O   O5        1.0  0.8127816094813672  0.6255632189627349  0.4377849697769622  1.0000
  O   O6        1.0  0.3127816094813674  0.6255632189627349  0.4377849697769622  1.0000
  O   O7        1.0  0.11706683124092775  0.23413366748185652  0.44840122574879926  1.0000
  O   O8        1.0  0.5310768133551032  0.062153621710206323  0.4189162122700636  1.0000
  Li  Li5       1.0  0.5469919016232775  0.09398380824655538  0.47401161386239854  1.0000
  Li  Li6       1.0  0.08998691185604034  0.6799738187120806  0.48875412104404153  1.0000
  Co  Co5       1.0  0.8007167424577875  0.10143348991557526  0.47265029077647197  1.0000
  Co  Co6       1.0  0.34371175269054993  0.6874235003811008  0.48739279795811513  1.0000
  O   O9        1.0  0.941766637599955  0.38353327519991065  0.48201249043734123  1.0000
  O   O10       1.0  0.44176663759995505  0.3835332751999107  0.48201249043734123  1.0000
  O   O11       1.0  0.24605185935951576  0.992103723719032  0.4926287464091783  1.0000
  O   O12       1.0  0.6600618414736908  0.8201236779473818  0.46314373293044264  1.0000
  Li  Li7       1.0  0.6759769297418651  0.8519538644837311  0.5182391345227774  1.0000
  Li  Li8       1.0  0.2189719399746279  0.4379438749492569  0.5329816417044206  1.0000
  Co  Co7       1.0  0.929701770576375  0.8594035461527508  0.516877811436851  1.0000
  Co  Co8       1.0  0.47269678080913774  0.44539355661827656  0.5316203186184942  1.0000
  O   O13       1.0  0.07075166571854273  0.1415033314370865  0.5262400110977203  1.0000
  O   O14       1.0  0.570751665718543  0.1415033314370865  0.5262400110977203  1.0000
  O   O15       1.0  0.37503688747810326  0.7500737799562078  0.5368562670695574  1.0000
  O   O16       1.0  0.7890468695922784  0.578093734184558  0.5073712535908215  1.0000
  Li  Li9       1.0  0.804961957860453  0.6099239207209071  0.5624666551831564  1.0000
  Li  Li10      1.0  0.3479569680932159  0.1959139311864323  0.5772091623647997  1.0000
  Co  Co9       1.0  0.05868679869496307  0.6173736023899266  0.56110533209723  1.0000
  Co  Co10      1.0  0.6016818089277255  0.2033636128554521  0.5758478392788732  1.0000
  O   O17       1.0  0.19973669383713055  0.899473387674262  0.5704675317580992  1.0000
  O   O18       1.0  0.6997366938371309  0.899473387674262  0.5704675317580992  1.0000
  O   O19       1.0  0.5040219155966913  0.5080438361933836  0.5810837877299364  1.0000
  O   O20       1.0  0.9180318977108662  0.33606379042173345  0.5515987742512005  1.0000
  Li  Li11      1.0  0.9339469859790407  0.3678939769580824  0.6066941758435355  1.0000
  Li  Li12      1.0  0.4769419962118037  0.9538839874236078  0.6214366830251787  1.0000
  Co  Co11      1.0  0.18767182681355063  0.375343658627102  0.6053328527576091  1.0000
  Co  Co12      1.0  0.7306668370463135  0.9613336690926277  0.6200753599392522  1.0000
  O   O21       1.0  0.32872172195571847  0.6574434439114377  0.6146950524184782  1.0000
  O   O22       1.0  0.8287217219557188  0.6574434439114377  0.6146950524184782  1.0000
  O   O23       1.0  0.6330069437152792  0.26601389243055934  0.6253113083903155  1.0000
  O   O24       1.0  0.047016925829454374  0.09403384665890922  0.5958262949115796  1.0000
