data_image0
_chemical_formula_structural       Li2Co2O4Li2Co2O4Li2Co2O4Li2Co2O4Li2Co2O4Li2Co2O4
_chemical_formula_sum              "Li12 Co12 O24"
_cell_length_a       2.93855002
_cell_length_b       9.859925
_cell_length_c       44.42086749161341
_cell_angle_alpha    90.0
_cell_angle_beta     90.0
_cell_angle_gamma    90.0

_space_group_name_H-M_alt    "P 1"
_space_group_IT_number       1

loop_
  _space_group_symop_operation_xyz
  'x, y, z'

loop_
  _atom_site_type_symbol
  _atom_site_label
  _atom_site_symmetry_multiplicity
  _atom_site_fract_x
  _atom_site_fract_y
  _atom_site_fract_z
  _atom_site_occupancy
  Li  Li1       1.0  0.5000000050000001  0.758208  0.3567757049554775  1.0000
  Li  Li2       1.0  0.999999995  0.258208  0.3758722779718188  1.0000
  Co  Co1       1.0  0.500000005  0.500513  0.3567757049554775  1.0000
  Co  Co2       1.0  0.999999995  0.000513  0.3758722779718188  1.0000
  O   O1        1.0  4.544922512876008e-18  0.386767  0.3376791325120334  1.0000
  O   O2        1.0  0.0  0.886767  0.3376791325120334  1.0000
  O   O3        1.0  0.500000005  0.11344300000000002  0.3567757049554775  1.0000
  O   O4        1.0  0.999999995  0.613443  0.3758722779718188  1.0000
  Li  Li3       1.0  5.0000002130229795e-09  0.758208  0.41406542285870707  1.0000
  Li  Li4       1.0  0.4999999950000002  0.258208  0.4331619958750484  1.0000
  Co  Co3       1.0  5.000000147583811e-09  0.500513  0.41406542285870707  1.0000
  Co  Co4       1.0  0.4999999950000002  0.000513  0.4331619958750484  1.0000
  O   O5        1.0  0.5000000000000002  0.386767  0.394968850415263  1.0000
  O   O6        1.0  0.5000000000000002  0.886767  0.394968850415263  1.0000
  O   O7        1.0  5.0000002130229795e-09  0.11344300000000002  0.41406542285870707  1.0000
  O   O8        1.0  0.4999999950000002  0.613443  0.4331619958750484  1.0000
  Li  Li5       1.0  0.5000000050000003  0.758208  0.47135514076193663  1.0000
  Li  Li6       1.0  0.9999999950000005  0.258208  0.49045171377827784  1.0000
  Co  Co5       1.0  0.5000000050000002  0.500513  0.47135514076193663  1.0000
  Co  Co6       1.0  0.9999999950000005  0.000513  0.49045171377827784  1.0000
  O   O9        1.0  3.330669073875469e-16  0.386767  0.45225856831849254  1.0000
  O   O10       1.0  3.330669073875469e-16  0.886767  0.45225856831849254  1.0000
  O   O11       1.0  0.5000000050000003  0.11344300000000002  0.47135514076193663  1.0000
  O   O12       1.0  0.9999999950000005  0.613443  0.49045171377827784  1.0000
  Li  Li7       1.0  5.000000968813367e-09  0.758208  0.5286448586651661  1.0000
  Li  Li8       1.0  0.4999999950000007  0.258208  0.5477414316815075  1.0000
  Co  Co7       1.0  5.000000746768762e-09  0.500513  0.5286448586651661  1.0000
  Co  Co8       1.0  0.4999999950000007  0.000513  0.5477414316815075  1.0000
  O   O13       1.0  0.5000000000000007  0.386767  0.509548286221722  1.0000
  O   O14       1.0  0.5000000000000007  0.886767  0.509548286221722  1.0000
  O   O15       1.0  5.000000968813367e-09  0.11344300000000002  0.5286448586651661  1.0000
  O   O16       1.0  0.4999999950000007  0.613443  0.5477414316815075  1.0000
  Li  Li9       1.0  0.5000000050000009  0.758208  0.5859345765683956  1.0000
  Li  Li10      1.0  0.9999999950000005  0.258208  0.605031149584737  1.0000
  Co  Co9       1.0  0.5000000050000009  0.500513  0.5859345765683956  1.0000
  Co  Co10      1.0  0.9999999950000005  0.000513  0.605031149584737  1.0000
  O   O17       1.0  6.661338147750938e-16  0.386767  0.5668380041249514  1.0000
  O   O18       1.0  6.661338147750938e-16  0.886767  0.5668380041249514  1.0000
  O   O19       1.0  0.5000000050000009  0.11344300000000002  0.5859345765683956  1.0000
  O   O20       1.0  0.9999999950000005  0.613443  0.605031149584737  1.0000
  Li  Li11      1.0  5.000000857791065e-09  0.758208  0.6432242944716252  1.0000
  Li  Li12      1.0  0.4999999950000009  0.258208  0.6623208674879666  1.0000
  Co  Co11      1.0  5.000000857791065e-09  0.500513  0.6432242944716252  1.0000
  Co  Co12      1.0  0.4999999950000009  0.000513  0.6623208674879666  1.0000
  O   O21       1.0  0.5000000000000009  0.386767  0.6241277220281811  1.0000
  O   O22       1.0  0.5000000000000009  0.886767  0.6241277220281811  1.0000
  O   O23       1.0  5.000000857791065e-09  0.11344300000000002  0.6432242944716252  1.0000
  O   O24       1.0  0.4999999950000009  0.613443  0.6623208674879666  1.0000
