data_image0
_chemical_formula_structural       Li4O4
_chemical_formula_sum              "Li4 O4"
_cell_length_a       3.10263483
_cell_length_b       3.102633828952688
_cell_length_c       7.56992946
_cell_angle_alpha    90.0
_cell_angle_beta     90.0
_cell_angle_gamma    119.99998945596172

_space_group_name_H-M_alt    "P 1"
_space_group_IT_number       1

loop_
  _space_group_symop_operation_xyz
  'x, y, z'

loop_
  _atom_site_type_symbol
  _atom_site_label
  _atom_site_symmetry_multiplicity
  _atom_site_fract_x
  _atom_site_fract_y
  _atom_site_fract_z
  _atom_site_occupancy
  Li  Li1       1.0  0.0  0.0  0.0  1.0000
  Li  Li2       1.0  0.0  0.0  0.49999999999999994  1.0000
  Li  Li3       1.0  0.333333  0.666667  0.24999999999999997  1.0000
  Li  Li4       1.0  0.6666669999999999  0.333333  0.7499999999999999  1.0000
  O   O1        1.0  0.333333  0.666667  0.64856887  1.0000
  O   O2        1.0  0.6666669999999999  0.333333  0.14856887  1.0000
  O   O3        1.0  0.6666669999999999  0.333333  0.35143113  1.0000
  O   O4        1.0  0.333333  0.666667  0.85143113  1.0000
