data_image0
_chemical_formula_structural       LiO8
_chemical_formula_sum              "Li1 O8"
_cell_length_a       5.249754507535302
_cell_length_b       5.413199314268996
_cell_length_c       5.412214084692461
_cell_angle_alpha    66.06793548132961
_cell_angle_beta     55.04984107024682
_cell_angle_gamma    55.053804050826955

_space_group_name_H-M_alt    "P 1"
_space_group_IT_number       1

loop_
  _space_group_symop_operation_xyz
  'x, y, z'

loop_
  _atom_site_type_symbol
  _atom_site_label
  _atom_site_symmetry_multiplicity
  _atom_site_fract_x
  _atom_site_fract_y
  _atom_site_fract_z
  _atom_site_occupancy
  Li  Li1       1.0  0.49236707000000013  0.78274939  0.7827344099999999  1.0000
  O   O1        1.0  0.8559165700000003  0.33489977  0.7729084899999998  1.0000
  O   O2        1.0  0.18507492  0.21297145  0.63387092  1.0000
  O   O3        1.0  0.18520211999999991  0.6338887500000001  0.21285298999999996  1.0000
  O   O4        1.0  0.8558705000000001  0.77303383  0.33484728999999985  1.0000
  O   O5        1.0  0.8550457600000001  0.27561239  0.2757604399999999  1.0000
  O   O6        1.0  0.18478566  0.69955586  0.6996191700000001  1.0000
  O   O7        1.0  0.17546345  0.15041602000000004  0.15042939999999994  1.0000
  O   O8        1.0  0.8630509500000003  0.82734754  0.8274518799999999  1.0000
