data_image0
_chemical_formula_structural       O8
_chemical_formula_sum              "O8"
_cell_length_a       5.369789702272613
_cell_length_b       5.369789702272613
_cell_length_c       4.389828171850124
_cell_angle_alpha    69.2448296788145
_cell_angle_beta     69.2448296788145
_cell_angle_gamma    70.78662063844565

_space_group_name_H-M_alt    "P 1"
_space_group_IT_number       1

loop_
  _space_group_symop_operation_xyz
  'x, y, z'

loop_
  _atom_site_type_symbol
  _atom_site_label
  _atom_site_symmetry_multiplicity
  _atom_site_fract_x
  _atom_site_fract_y
  _atom_site_fract_z
  _atom_site_occupancy
  O   O1        1.0  0.7265409999999999  0.21391100000000007  0.155391  1.0000
  O   O2        1.0  0.786088999999999  0.27345900000000006  0.8446089999999992  1.0000
  O   O3        1.0  0.27345899999999995  0.786088999999999  0.8446089999999992  1.0000
  O   O4        1.0  0.21391100000000005  0.726541  0.155391  1.0000
  O   O5        1.0  0.792252  0.792252  0.17832  1.0000
  O   O6        1.0  0.207748  0.20774799999999996  0.8216800000000002  1.0000
  O   O7        1.0  0.851777999999999  0.8517779999999993  0.867359  1.0000
  O   O8        1.0  0.14822200000000002  0.14822199999999996  0.132640999999999  1.0000
