data_image0
_chemical_formula_structural       Li360La32Zr20O124
_chemical_formula_sum              "Li360 La32 Zr20 O124"
_cell_length_a       13.28672851
_cell_length_b       13.69931371
_cell_length_c       68.56952580000001
_cell_angle_alpha    90.09103559
_cell_angle_beta     90.07697889000002
_cell_angle_gamma    90.07747693

_space_group_name_H-M_alt    "P 1"
_space_group_IT_number       1

loop_
  _space_group_symop_operation_xyz
  'x, y, z'

loop_
  _atom_site_type_symbol
  _atom_site_label
  _atom_site_symmetry_multiplicity
  _atom_site_fract_x
  _atom_site_fract_y
  _atom_site_fract_z
  _atom_site_occupancy
  Li  Li1       1.0  0.69603382  0.94745802  0.22700009000000004  1.0000
  Li  Li2       1.0  0.7975343100000001  0.14698806  0.22791043  1.0000
  Li  Li3       1.0  0.20864154000000004  0.55689082  0.22516087  1.0000
  Li  Li4       1.0  0.32014575  0.40479146  0.23005197  1.0000
  Li  Li5       1.0  0.8762652100000001  0.26538036  0.24882897  1.0000
  Li  Li6       1.0  0.6315169800000001  0.7564767899999999  0.24109233000000002  1.0000
  Li  Li7       1.0  0.40529821  0.22279056  0.23530829  1.0000
  Li  Li8       1.0  0.11449076  0.7584981  0.2252414  1.0000
  Li  Li9       1.0  0.3459782600000001  0.11863431  0.26005078  1.0000
  Li  Li10      1.0  0.16383990000000007  0.84692051  0.25328401  1.0000
  Li  Li11      1.0  0.7887699000000002  0.46021664  0.26604438  1.0000
  Li  Li12      1.0  0.67246169  0.60666351  0.25729438  1.0000
  Li  Li13      1.0  0.412867  0.32716357  0.26435187  1.0000
  Li  Li14      1.0  0.09941721000000003  0.66233028  0.25814533  1.0000
  Li  Li15      1.0  0.95077645  0.15689663  0.2756399  1.0000
  Li  Li16      1.0  0.58831904  0.8622161099999999  0.26413108  1.0000
  Li  Li17      1.0  0.32733599000000013  0.94668311  0.2753763400000001  1.0000
  Li  Li18      1.0  0.15705167000000003  0.04759914000000001  0.2716121100000001  1.0000
  Li  Li19      1.0  0.5801308  0.4308659799999999  0.27866604000000006  1.0000
  Li  Li20      1.0  0.93902137  0.59230301  0.27550911  1.0000
  Li  Li21      1.0  0.4138604  0.41627241  0.2999008000000001  1.0000
  Li  Li22      1.0  0.09884788000000003  0.5934681299999999  0.29982764  1.0000
  Li  Li23      1.0  0.6714071300000001  0.9478894299999999  0.30614074  1.0000
  Li  Li24      1.0  0.84390739  0.07078956  0.30744782  1.0000
  Li  Li25      1.0  0.05434988999999999  0.15268936  0.30448262  1.0000
  Li  Li26      1.0  0.4983322300000001  0.8901034299999999  0.29362560000000004  1.0000
  Li  Li27      1.0  0.59337144  0.34535695  0.30928904  1.0000
  Li  Li28      1.0  0.94014353  0.68306919  0.30604747  1.0000
  Li  Li29      1.0  0.2148912  0.426047  0.31675615  1.0000
  Li  Li30      1.0  0.30436266  0.58604467  0.31959047000000007  1.0000
  Li  Li31      1.0  0.68381169  0.1037347  0.32787773  1.0000
  Li  Li32      1.0  0.83943762  0.90469146  0.32401123000000004  1.0000
  Li  Li33      1.0  0.40212632  0.78846413  0.32722836  1.0000
  Li  Li34      1.0  0.13143541  0.25310977  0.33622322  1.0000
  Li  Li35      1.0  0.88416942  0.7486296  0.33751675  1.0000
  Li  Li36      1.0  0.6335169500000002  0.26042627  0.3385060800000001  1.0000
  Li  Li37      1.0  0.82490326  0.5938907  0.35054971  1.0000
  Li  Li38      1.0  0.7008585900000001  0.42047887  0.34719676  1.0000
  Li  Li39      1.0  0.29896553  0.9240313799999998  0.35497144  1.0000
  Li  Li40      1.0  0.21350847000000003  0.08582149  0.35639125  1.0000
  Li  Li41      1.0  0.94213722  0.83374783  0.36400107  1.0000
  Li  Li42      1.0  0.58621042  0.15969935  0.36318346  1.0000
  Li  Li43      1.0  0.4163957500000001  0.66931306  0.35414654  1.0000
  Li  Li44      1.0  0.06236309  0.35093703  0.36731399  1.0000
  Li  Li45      1.0  0.8580220700000002  0.42892990999999997  0.36747636000000006  1.0000
  Li  Li46      1.0  0.66022067  0.58348868  0.36844511  1.0000
  Li  Li47      1.0  0.09416686  0.91962681  0.37363168  1.0000
  Li  Li48      1.0  0.4156607900000001  0.09322498999999998  0.37323036000000004  1.0000
  Li  Li49      1.0  0.93159432  0.92431846  0.39544786  1.0000
  Li  Li50      1.0  0.5787673200000001  0.08314407  0.39476389  1.0000
  Li  Li51      1.0  0.15630116  0.46562457999999995  0.39990539000000014  1.0000
  Li  Li52      1.0  0.32442865  0.56260358  0.39880426  1.0000
  Li  Li53      1.0  0.50082339  0.61858825  0.38508282  1.0000
  Li  Li54      1.0  0.95635847  0.35111446999999996  0.3981790700000001  1.0000
  Li  Li55      1.0  0.08652436  0.83672396  0.40987325  1.0000
  Li  Li56      1.0  0.41698615  0.19851259999999998  0.40440054000000003  1.0000
  Li  Li57      1.0  0.67276903  0.84556648  0.41743573  1.0000
  Li  Li58      1.0  0.7612217100000003  0.0104712  0.40535902  1.0000
  Li  Li59      1.0  0.16136171000000005  0.66870326  0.42024802  1.0000
  Li  Li60      1.0  0.34325640000000013  0.38896  0.4124737800000001  1.0000
  Li  Li61      1.0  0.85041307  0.18657227  0.41665222  1.0000
  Li  Li62      1.0  0.60117014  0.65827557  0.4121647600000001  1.0000
  Li  Li63      1.0  0.39129603  0.26387813  0.43576103  1.0000
  Li  Li64      1.0  0.10666399000000003  0.72916656  0.4512326  1.0000
  Li  Li65      1.0  0.3094707400000001  0.07925950999999999  0.44517694  1.0000
  Li  Li66      1.0  0.19849706000000006  0.90854557  0.44241511  1.0000
  Li  Li67      1.0  0.82518414  0.36267864  0.43911841  1.0000
  Li  Li68      1.0  0.6984747400000002  0.52082815  0.44882396  1.0000
  Li  Li69      1.0  0.9270054800000003  0.19900971  0.4477747300000001  1.0000
  Li  Li70      1.0  0.58686356  0.85172573  0.44881050000000006  1.0000
  Li  Li71      1.0  0.62900681  0.64714401  0.21254340000000005  1.0000
  Li  Li72      1.0  0.89883296  0.30853931999999995  0.21542431  1.0000
  Li  Li73      1.0  0.03514314000000001  0.94114668  0.50888429  1.0000
  Li  Li74      1.0  0.17790248  0.05960473000000001  0.61133379  1.0000
  Li  Li75      1.0  0.18361289000000006  0.92049042  0.6454906000000002  1.0000
  Li  Li76      1.0  0.01995549  0.03633448  0.65926872  1.0000
  Li  Li77      1.0  0.18546339  0.98693221  0.7253753400000003  1.0000
  Li  Li78      1.0  0.09474784000000001  0.16474981  0.7764952  1.0000
  Li  Li79      1.0  0.17994015  0.9996352099999999  0.86459956  1.0000
  Li  Li80      1.0  0.12053834  0.08936863999999999  0.46415436000000004  1.0000
  Li  Li81      1.0  0.9429339200000001  0.11398742999999999  0.52204467  1.0000
  Li  Li82      1.0  0.14348507000000002  0.21726313  0.58359454  1.0000
  Li  Li83      1.0  0.16319755000000002  0.16780544  0.64919777  1.0000
  Li  Li84      1.0  0.06157900000000001  0.1886022  0.68694172  1.0000
  Li  Li85      1.0  0.26940379  0.17616677  0.71538481  1.0000
  Li  Li86      1.0  0.16962809000000006  0.2937179999999999  0.75289555  1.0000
  Li  Li87      1.0  0.19470814000000006  0.14138188  0.83663821  1.0000
  Li  Li88      1.0  0.05463683000000001  0.27700418  0.50296806  1.0000
  Li  Li89      1.0  0.01134623  0.2970224  0.5432529900000002  1.0000
  Li  Li90      1.0  0.22028863  0.43181088  0.60650719  1.0000
  Li  Li91      1.0  0.19192374  0.36008678  0.6464511  1.0000
  Li  Li92      1.0  0.07689851000000003  0.38609169  0.67862792  1.0000
  Li  Li93      1.0  0.15415646  0.33915332  0.71566475  1.0000
  Li  Li94      1.0  0.06684294  0.38628936  0.7847326800000001  1.0000
  Li  Li95      1.0  0.09117921000000002  0.35257143  0.8480488300000002  1.0000
  Li  Li96      1.0  0.97699475  0.36836735  0.4697528  1.0000
  Li  Li97      1.0  0.89956624  0.43769066  0.5551831400000002  1.0000
  Li  Li98      1.0  0.06858395000000002  0.55940813  0.56047321  1.0000
  Li  Li99      1.0  0.19527202  0.54093926  0.66694463  1.0000
  Li  Li100     1.0  0.05506868  0.51189831  0.7065701700000002  1.0000
  Li  Li101     1.0  0.14115752  0.4929522  0.7440142700000001  1.0000
  Li  Li102     1.0  0.08356739  0.60022521  0.7866278900000002  1.0000
  Li  Li103     1.0  0.19850339  0.47154999999999997  0.81653986  1.0000
  Li  Li104     1.0  0.0473679  0.56742649  0.48514277999999994  1.0000
  Li  Li105     1.0  0.8324736500000002  0.62266885  0.50551965  1.0000
  Li  Li106     1.0  0.98369909  0.7356261199999999  0.5647985500000002  1.0000
  Li  Li107     1.0  0.0984167  0.60478578  0.5998559  1.0000
  Li  Li108     1.0  0.09543292  0.81098727  0.7273380200000003  1.0000
  Li  Li109     1.0  0.21186419000000006  0.6825780199999999  0.75615268  1.0000
  Li  Li110     1.0  0.02588654  0.79998264  0.80962979  1.0000
  Li  Li111     1.0  0.1375026  0.65623946  0.83163816  1.0000
  Li  Li112     1.0  0.12663846000000004  0.76592039  0.49971916000000005  1.0000
  Li  Li113     1.0  0.9216304900000002  0.79897459  0.5278451700000002  1.0000
  Li  Li114     1.0  0.1029201  0.88398018  0.58307051  1.0000
  Li  Li115     1.0  0.16532498  0.7836067299999999  0.61543917  1.0000
  Li  Li116     1.0  0.01340762  0.97984178  0.70250696  1.0000
  Li  Li117     1.0  0.23598988000000007  0.89939008  0.76229476  1.0000
  Li  Li118     1.0  0.08899242  0.97057938  0.78987081  1.0000
  Li  Li119     1.0  0.19822917000000004  0.89357636  0.82739301  1.0000
  Li  Li120     1.0  0.22704955000000002  0.93087332  0.48940180000000005  1.0000
  Li  Li121     1.0  0.027019200000000004  0.96729817  0.5491117000000002  1.0000
  Li  Li122     1.0  0.22765690000000005  0.02486396  0.56942391  1.0000
  Li  Li123     1.0  0.32535477  0.058168059999999994  0.63957856  1.0000
  Li  Li124     1.0  0.19934372  0.04471193  0.68244736  1.0000
  Li  Li125     1.0  0.36975585  0.99756923  0.71286406  1.0000
  Li  Li126     1.0  0.24799840000000006  0.06757393  0.80005045  1.0000
  Li  Li127     1.0  0.37912972000000006  0.9912619699999999  0.83069635  1.0000
  Li  Li128     1.0  0.33777209000000014  0.0998916  0.49037238  1.0000
  Li  Li129     1.0  0.14925602  0.11227429999999998  0.50540564  1.0000
  Li  Li130     1.0  0.28828514  0.23735346999999998  0.612213  1.0000
  Li  Li131     1.0  0.35915133  0.249234  0.64837425  1.0000
  Li  Li132     1.0  0.24897535  0.27905561  0.68114619  1.0000
  Li  Li133     1.0  0.34296037  0.25549753  0.77550838  1.0000
  Li  Li134     1.0  0.21128717  0.28311094  0.80592175  1.0000
  Li  Li135     1.0  0.40443138  0.13401963  0.86027951  1.0000
  Li  Li136     1.0  0.2446166  0.26279503  0.47838906  1.0000
  Li  Li137     1.0  0.12339031  0.14521229  0.5452741300000002  1.0000
  Li  Li138     1.0  0.19186083  0.36908269  0.5603863  1.0000
  Li  Li139     1.0  0.3614866700000001  0.36712367  0.58474132  1.0000
  Li  Li140     1.0  0.27921053  0.46145808999999993  0.7000966700000001  1.0000
  Li  Li141     1.0  0.34086258  0.36574346  0.7346003200000001  1.0000
  Li  Li142     1.0  0.2761825  0.45218215999999994  0.77462841  1.0000
  Li  Li143     1.0  0.30033024  0.32786656999999997  0.84633469  1.0000
  Li  Li144     1.0  0.18483362  0.42215736  0.49399518  1.0000
  Li  Li145     1.0  0.11670787  0.45846128  0.5283345700000002  1.0000
  Li  Li146     1.0  0.27573288  0.5393878  0.5721700900000002  1.0000
  Li  Li147     1.0  0.34150026  0.46934865  0.6393580900000002  1.0000
  Li  Li148     1.0  0.06727791  0.6824609  0.68888478  1.0000
  Li  Li149     1.0  0.36605676  0.56685325  0.74283755  1.0000
  Li  Li150     1.0  0.32015390000000005  0.61209773  0.7979501200000002  1.0000
  Li  Li151     1.0  0.35495217  0.54015004  0.84309012  1.0000
  Li  Li152     1.0  0.23754014  0.600057  0.5011368200000003  1.0000
  Li  Li153     1.0  0.02749194  0.6336407200000002  0.52281315  1.0000
  Li  Li154     1.0  0.20545545  0.72546838  0.57582357  1.0000
  Li  Li155     1.0  0.25609506  0.6213197  0.62557091  1.0000
  Li  Li156     1.0  0.24059665000000005  0.7301607699999999  0.66183581  1.0000
  Li  Li157     1.0  0.23525021  0.64383352  0.7122792400000002  1.0000
  Li  Li158     1.0  0.21214078000000006  0.77355121  0.79414234  1.0000
  Li  Li159     1.0  0.36054772  0.74217465  0.82698185  1.0000
  Li  Li160     1.0  0.30469938000000013  0.73356629  0.47548703000000003  1.0000
  Li  Li161     1.0  0.13025113  0.80275166  0.54003159  1.0000
  Li  Li162     1.0  0.29637412  0.90578779  0.60141032  1.0000
  Li  Li163     1.0  0.35285831  0.8033093799999999  0.6344184000000003  1.0000
  Li  Li164     1.0  0.19687376000000006  0.85208983  0.69319313  1.0000
  Li  Li165     1.0  0.32219945  0.8133442  0.72829086  1.0000
  Li  Li166     1.0  0.26213865  0.09279601000000003  0.7557564100000003  1.0000
  Li  Li167     1.0  0.3581587600000001  0.85260427  0.8618028500000002  1.0000
  Li  Li168     1.0  0.41960851  0.93011214  0.46775699000000004  1.0000
  Li  Li169     1.0  0.2246786  0.96901693  0.52951225  1.0000
  Li  Li170     1.0  0.38713942000000007  0.08084194999999998  0.59429939  1.0000
  Li  Li171     1.0  0.46482304  0.947098  0.62608903  1.0000
  Li  Li172     1.0  0.38255513  0.12393074  0.67825544  1.0000
  Li  Li173     1.0  0.44346234  0.94612204  0.75133907  1.0000
  Li  Li174     1.0  0.43468820000000014  0.07443464  0.7850512300000002  1.0000
  Li  Li175     1.0  0.56423675  0.9666975299999999  0.86216248  1.0000
  Li  Li176     1.0  0.5327975  0.11983500999999999  0.50761378  1.0000
  Li  Li177     1.0  0.34227054  0.12924358  0.52842025  1.0000
  Li  Li178     1.0  0.32155456  0.19808564  0.56423712  1.0000
  Li  Li179     1.0  0.49551298  0.1511353  0.62481114  1.0000
  Li  Li180     1.0  0.43591478  0.29086486  0.70076823  1.0000
  Li  Li181     1.0  0.4371710900000001  0.18046484  0.74046304  1.0000
  Li  Li182     1.0  0.3945837  0.20169715  0.81873879  1.0000
  Li  Li183     1.0  0.5602617400000001  0.09125653  0.82452859  1.0000
  Li  Li184     1.0  0.41994957  0.2898747  0.50424415  1.0000
  Li  Li185     1.0  0.23411055000000006  0.28786394  0.52341895  1.0000
  Li  Li186     1.0  0.41230609  0.35354861  0.54736121  1.0000
  Li  Li187     1.0  0.46246495000000004  0.34993892  0.62098707  1.0000
  Li  Li188     1.0  0.41439152000000007  0.40016717  0.67083737  1.0000
  Li  Li189     1.0  0.50433136  0.3806469  0.75892053  1.0000
  Li  Li190     1.0  0.40994865000000014  0.39815968999999996  0.80752704  1.0000
  Li  Li191     1.0  0.51741801  0.34081219  0.84588065  1.0000
  Li  Li192     1.0  0.40920279  0.47247681  0.48636036  1.0000
  Li  Li193     1.0  0.3253510600000001  0.47927989  0.52814545  1.0000
  Li  Li194     1.0  0.41119784  0.52950127  0.60327529  1.0000
  Li  Li195     1.0  0.56739125  0.46890695  0.64528734  1.0000
  Li  Li196     1.0  0.40445848  0.58782424  0.67398755  1.0000
  Li  Li197     1.0  0.47791768  0.50746277  0.71109443  1.0000
  Li  Li198     1.0  0.4827025200000001  0.54302098  0.7809236800000002  1.0000
  Li  Li199     1.0  0.5430608  0.54183595  0.82165756  1.0000
  Li  Li200     1.0  0.43934467  0.6309519699999999  0.51351338  1.0000
  Li  Li201     1.0  0.21886211  0.63565889  0.53801179  1.0000
  Li  Li202     1.0  0.3871797400000001  0.72159209  0.5959820500000002  1.0000
  Li  Li203     1.0  0.4631109  0.63680588  0.6375130600000001  1.0000
  Li  Li204     1.0  0.38316009  0.75055908  0.6912041400000002  1.0000
  Li  Li205     1.0  0.509935  0.72457211  0.72186556  1.0000
  Li  Li206     1.0  0.41829147000000005  0.74296923  0.7640987900000002  1.0000
  Li  Li207     1.0  0.52217445  0.68513573  0.8560317400000003  1.0000
  Li  Li208     1.0  0.51117417  0.60703291  0.46339639  1.0000
  Li  Li209     1.0  0.31668983  0.7876337  0.51803724  1.0000
  Li  Li210     1.0  0.33126927  0.8635574999999999  0.55849382  1.0000
  Li  Li211     1.0  0.56258006  0.79189236  0.6167702200000003  1.0000
  Li  Li212     1.0  0.35409516  0.9197834699999999  0.66911027  1.0000
  Li  Li213     1.0  0.51490043  0.90294947  0.69526728  1.0000
  Li  Li214     1.0  0.38141448  0.8844573  0.7954487800000002  1.0000
  Li  Li215     1.0  0.54773111  0.85229615  0.8286876500000002  1.0000
  Li  Li216     1.0  0.4210625000000001  0.95012609  0.5128467  1.0000
  Li  Li217     1.0  0.46426266  0.02378261  0.55228363  1.0000
  Li  Li218     1.0  0.58743549  0.09024444  0.58240948  1.0000
  Li  Li219     1.0  0.6353479000000001  0.01258744  0.6145238  1.0000
  Li  Li220     1.0  0.53188686  0.11493798  0.7055196  1.0000
  Li  Li221     1.0  0.61773234  0.9320114  0.728332  1.0000
  Li  Li222     1.0  0.58931227  0.09808160999999999  0.75754291  1.0000
  Li  Li223     1.0  0.72105633  0.96425988  0.82762169  1.0000
  Li  Li224     1.0  0.5082381400000001  0.1277903  0.4653277400000001  1.0000
  Li  Li225     1.0  0.52728233  0.20996403  0.54247256  1.0000
  Li  Li226     1.0  0.50308358  0.24917471  0.58300389  1.0000
  Li  Li227     1.0  0.6842738  0.12318652  0.6447870600000001  1.0000
  Li  Li228     1.0  0.54798516  0.24538136  0.66197757  1.0000
  Li  Li229     1.0  0.69966227  0.13582543  0.72524867  1.0000
  Li  Li230     1.0  0.54458759  0.24173155  0.7896304700000001  1.0000
  Li  Li231     1.0  0.68449872  0.15976805  0.85810026  1.0000
  Li  Li232     1.0  0.64377086  0.29008531  0.51026528  1.0000
  Li  Li233     1.0  0.53788252  0.4536216  0.520108  1.0000
  Li  Li234     1.0  0.58744048  0.41860812  0.5921724700000002  1.0000
  Li  Li235     1.0  0.6510014300000002  0.26594158  0.61492804  1.0000
  Li  Li236     1.0  0.6182570500000002  0.41614309  0.6847932600000002  1.0000
  Li  Li237     1.0  0.5877355300000001  0.31836911  0.72557486  1.0000
  Li  Li238     1.0  0.6418043300000003  0.41582909  0.79209646  1.0000
  Li  Li239     1.0  0.67215948  0.28279934  0.82257426  1.0000
  Li  Li240     1.0  0.56145982  0.39136819999999994  0.46819338000000005  1.0000
  Li  Li241     1.0  0.49181434  0.52338249  0.56340019  1.0000
  Li  Li242     1.0  0.58741562  0.60187366  0.6061266900000001  1.0000
  Li  Li243     1.0  0.72349086  0.48719437  0.6198373200000002  1.0000
  Li  Li244     1.0  0.60866751  0.63702906  0.6830965900000002  1.0000
  Li  Li245     1.0  0.6894487500000003  0.51443633  0.71675943  1.0000
  Li  Li246     1.0  0.5815240600000001  0.5910274599999998  0.74842958  1.0000
  Li  Li247     1.0  0.6759147000000001  0.49987644  0.8568927600000001  1.0000
  Li  Li248     1.0  0.68726471  0.7023967  0.44048366  1.0000
  Li  Li249     1.0  0.39875743  0.67785129  0.55304308  1.0000
  Li  Li250     1.0  0.57855913  0.72465256  0.57521853  1.0000
  Li  Li251     1.0  0.68545804  0.6839011399999999  0.64090715  1.0000
  Li  Li252     1.0  0.51650098  0.79385285  0.6601771200000001  1.0000
  Li  Li253     1.0  0.71492598  0.73576621  0.7183188  1.0000
  Li  Li254     1.0  0.52863647  0.72156429  0.79863389  1.0000
  Li  Li255     1.0  0.6967465000000003  0.6780733  0.82892631  1.0000
  Li  Li256     1.0  0.52457826  0.78213896  0.4962789000000001  1.0000
  Li  Li257     1.0  0.52551365  0.82037328  0.54032114  1.0000
  Li  Li258     1.0  0.49152924000000003  0.9024540099999999  0.5856456600000002  1.0000
  Li  Li259     1.0  0.68155186  0.89894887  0.6473587600000003  1.0000
  Li  Li260     1.0  0.52829573  0.02166150999999994  0.66073068  1.0000
  Li  Li261     1.0  0.64507871  0.7876641599999998  0.75947545  1.0000
  Li  Li262     1.0  0.58553809  0.93859956  0.7883187000000001  1.0000
  Li  Li263     1.0  0.7193916500000002  0.79880463  0.86232992  1.0000
  Li  Li264     1.0  0.60286056  0.96511738  0.48375916  1.0000
  Li  Li265     1.0  0.6721135700000002  0.93611016  0.56712346  1.0000
  Li  Li266     1.0  0.79907457  0.07184992  0.59261314  1.0000
  Li  Li267     1.0  0.83755576  0.00768673  0.63015991  1.0000
  Li  Li268     1.0  0.6892698300000002  0.03633027  0.68521798  1.0000
  Li  Li269     1.0  0.81292082  0.96011884  0.71654303  1.0000
  Li  Li270     1.0  0.70486632  0.10812239  0.7948323  1.0000
  Li  Li271     1.0  0.8512912900000003  0.98651207  0.86139416  1.0000
  Li  Li272     1.0  0.74466422  0.10990137  0.50628466  1.0000
  Li  Li273     1.0  0.6875407600000002  0.11457009  0.54554295  1.0000
  Li  Li274     1.0  0.71890192  0.23661859  0.57682458  1.0000
  Li  Li275     1.0  0.8525327500000001  0.14970375  0.66162921  1.0000
  Li  Li276     1.0  0.7010758800000002  0.23651534  0.6886594600000002  1.0000
  Li  Li277     1.0  0.8762982700000003  0.13328278  0.74127719  1.0000
  Li  Li278     1.0  0.7256667700000001  0.24783912  0.76327651  1.0000
  Li  Li279     1.0  0.8369920000000002  0.13404619  0.82648296  1.0000
  Li  Li280     1.0  0.7455823700000002  0.23000772  0.4707977300000001  1.0000
  Li  Li281     1.0  0.62995304  0.37190734  0.5539445100000002  1.0000
  Li  Li282     1.0  0.79837276  0.39418872  0.5892192  1.0000
  Li  Li283     1.0  0.8372359500000001  0.22464681999999997  0.61843929  1.0000
  Li  Li284     1.0  0.74448838  0.3287544  0.6502219600000002  1.0000
  Li  Li285     1.0  0.7832536700000002  0.3271267  0.72280046  1.0000
  Li  Li286     1.0  0.72145774  0.44023685  0.75539285  1.0000
  Li  Li287     1.0  0.85400326  0.33284287  0.8464659300000003  1.0000
  Li  Li288     1.0  0.75763989  0.43005266  0.4890496100000001  1.0000
  Li  Li289     1.0  0.64236727  0.59801879  0.49486002000000007  1.0000
  Li  Li290     1.0  0.7069506000000001  0.54804003  0.56977888  1.0000
  Li  Li291     1.0  0.90591961  0.41114513  0.62460591  1.0000
  Li  Li292     1.0  0.76075712  0.52468242  0.6620227800000001  1.0000
  Li  Li293     1.0  0.8594818  0.5836349  0.70245798  1.0000
  Li  Li294     1.0  0.6984273300000002  0.60981002  0.78634917  1.0000
  Li  Li295     1.0  0.7710791400000001  0.48536752  0.81996699  1.0000
  Li  Li296     1.0  0.7400241600000003  0.78404717  0.47529694  1.0000
  Li  Li297     1.0  0.6194895600000001  0.63250154  0.53608632  1.0000
  Li  Li298     1.0  0.76395633  0.68752453  0.59737365  1.0000
  Li  Li299     1.0  0.8830495400000001  0.61056491  0.62879303  1.0000
  Li  Li300     1.0  0.8443061600000002  0.71161088  0.67036643  1.0000
  Li  Li301     1.0  0.79485717  0.62776457  0.74682822  1.0000
  Li  Li302     1.0  0.7280177200000002  0.80761908  0.79914349  1.0000
  Li  Li303     1.0  0.88903946  0.61578481  0.85290274  1.0000
  Li  Li304     1.0  0.7174254700000002  0.78234195  0.5169270400000001  1.0000
  Li  Li305     1.0  0.6277459600000003  0.95944379  0.52374759  1.0000
  Li  Li306     1.0  0.7429157400000003  0.86551391  0.6043431100000002  1.0000
  Li  Li307     1.0  0.86551447  0.8109124999999999  0.63702879  1.0000
  Li  Li308     1.0  0.69345893  0.8294652999999998  0.6857436700000002  1.0000
  Li  Li309     1.0  0.8646626700000002  0.82804622  0.7453482900000002  1.0000
  Li  Li310     1.0  0.76115084  0.98551135  0.7606786000000002  1.0000
  Li  Li311     1.0  0.8604830300000001  0.82066937  0.83175731  1.0000
  Li  Li312     1.0  0.8277786  0.93336893  0.49910999000000006  1.0000
  Li  Li313     1.0  0.82228618  0.9586755  0.5387067  1.0000
  Li  Li314     1.0  0.01282585000000003  0.06328372  0.58652857  1.0000
  Li  Li315     1.0  0.01810813  0.92466508  0.6207599  1.0000
  Li  Li316     1.0  0.87629753  0.13862927  0.70040824  1.0000
  Li  Li317     1.0  0.00671746  0.98441505  0.75100635  1.0000
  Li  Li318     1.0  0.90363667  0.12452637  0.78322739  1.0000
  Li  Li319     1.0  0.0086287  0.004337620000000002  0.8281812000000001  1.0000
  Li  Li320     1.0  0.9420126  0.09957049  0.48260788  1.0000
  Li  Li321     1.0  0.88784896  0.1199534  0.55782865  1.0000
  Li  Li322     1.0  0.9353097900000001  0.25279799  0.5828455  1.0000
  Li  Li323     1.0  0.9956345900000001  0.1245246  0.62412844  1.0000
  Li  Li324     1.0  0.9769077000000003  0.28785765  0.65301221  1.0000
  Li  Li325     1.0  0.07203473  0.15152454  0.72984455  1.0000
  Li  Li326     1.0  0.9413247700000003  0.3037482  0.75754497  1.0000
  Li  Li327     1.0  0.99573243  0.15784871  0.85905815  1.0000
  Li  Li328     1.0  0.8591221700000001  0.2758652  0.5033519  1.0000
  Li  Li329     1.0  0.801227  0.27954828  0.53944682  1.0000
  Li  Li330     1.0  0.03814942000000033  0.41526131  0.5876011000000001  1.0000
  Li  Li331     1.0  0.07513729000000001  0.28971852  0.61720827  1.0000
  Li  Li332     1.0  0.85903128  0.37902242  0.6851072  1.0000
  Li  Li333     1.0  0.96915787  0.30711079  0.71506367  1.0000
  Li  Li334     1.0  0.8452063600000003  0.31501542  0.7981237600000002  1.0000
  Li  Li335     1.0  0.01782967  0.22697883  0.81608156  1.0000
  Li  Li336     1.0  0.93743895  0.45105025  0.51226028  1.0000
  Li  Li337     1.0  0.7432850400000001  0.46935567  0.5273649100000002  1.0000
  Li  Li338     1.0  0.9034404500000002  0.56662577  0.58807362  1.0000
  Li  Li339     1.0  0.07684417  0.49672698  0.63283805  1.0000
  Li  Li340     1.0  0.9664385000000001  0.53728852  0.66528372  1.0000
  Li  Li341     1.0  0.9178129500000001  0.4691877  0.73663582  1.0000
  Li  Li342     1.0  0.8852524300000001  0.50121907  0.77942905  1.0000
  Li  Li343     1.0  0.98502162  0.46320687  0.8203169900000002  1.0000
  Li  Li344     1.0  0.8604715900000002  0.57436634  0.46591789  1.0000
  Li  Li345     1.0  0.85395048  0.61759332  0.5444843200000002  1.0000
  Li  Li346     1.0  0.9624455300000002  0.75518255  0.60329721  1.0000
  Li  Li347     1.0  0.05663253  0.69449224  0.64295452  1.0000
  Li  Li348     1.0  0.9134966000000002  0.78921023  0.70548687  1.0000
  Li  Li349     1.0  0.0008535000000000019  0.65193784  0.7387726800000002  1.0000
  Li  Li350     1.0  0.8803048300000003  0.71875154  0.77847377  1.0000
  Li  Li351     1.0  0.90172086  0.64282751  0.8127911  1.0000
  Li  Li352     1.0  0.9378059300000002  0.75723076  0.48810585000000006  1.0000
  Li  Li353     1.0  0.7608296  0.76907508  0.55822295  1.0000
  Li  Li354     1.0  0.88890326  0.9038423699999999  0.57804762  1.0000
  Li  Li355     1.0  0.028650480000000006  0.84393664  0.6673879500000001  1.0000
  Li  Li356     1.0  0.8529386500000002  0.9403677399999999  0.67255647  1.0000
  Li  Li357     1.0  0.04836338  0.80205002  0.76783895  1.0000
  Li  Li358     1.0  0.8804665600000001  0.93280396  0.7934063  1.0000
  Li  Li359     1.0  0.03350642000000001  0.82277287  0.85546278  1.0000
  Li  Li360     1.0  0.011601390000000267  0.9175782099999998  0.4663178200000001  1.0000
  La  La1       1.0  0.26985577  0.99146151  0.22318898000000006  1.0000
  La  La2       1.0  0.7652744900000003  0.48914352  0.22478329  1.0000
  La  La3       1.0  0.86631379  0.7609074  0.2438723  1.0000
  La  La4       1.0  0.38020753000000007  0.77019007  0.24497690000000003  1.0000
  La  La5       1.0  0.62868059  0.27023761  0.24690419  1.0000
  La  La6       1.0  0.12241145000000003  0.2490014  0.24468127  1.0000
  La  La7       1.0  0.7558149300000001  0.015592059999999906  0.26693299  1.0000
  La  La8       1.0  0.26087814  0.5165534  0.26772671  1.0000
  La  La9       1.0  0.52020948  0.13082165  0.29188206  1.0000
  La  La10      1.0  0.015298660000000004  0.38386969  0.28848443  1.0000
  La  La11      1.0  0.50217473  0.63927373  0.2887695300000001  1.0000
  La  La12      1.0  0.009529969999999999  0.88259926  0.29083975  1.0000
  La  La13      1.0  0.76411099  0.51764222  0.31043686  1.0000
  La  La14      1.0  0.25757073  0.008081870000000047  0.3146511400000001  1.0000
  La  La15      1.0  0.3792450300000001  0.25155049  0.33540102  1.0000
  La  La16      1.0  0.89109765  0.26114512  0.33588216  1.0000
  La  La17      1.0  0.13275066  0.7556277199999999  0.33637465  1.0000
  La  La18      1.0  0.63355949  0.7570718499999999  0.33511978  1.0000
  La  La19      1.0  0.25409747  0.49877721  0.35762551  1.0000
  La  La20      1.0  0.7628165900000002  0.9966401899999999  0.36156257  1.0000
  La  La21      1.0  0.008263130000000007  0.62703325  0.3815997700000001  1.0000
  La  La22      1.0  0.50896651  0.86559025  0.38213519  1.0000
  La  La23      1.0  0.0088859  0.13399676  0.38263981  1.0000
  La  La24      1.0  0.5159693400000002  0.38120794  0.3800128800000001  1.0000
  La  La25      1.0  0.25881176  0.99818113  0.40394073000000014  1.0000
  La  La26      1.0  0.76157145  0.49705568  0.4051742600000001  1.0000
  La  La27      1.0  0.88928914  0.77398229  0.42966846  1.0000
  La  La28      1.0  0.37631729  0.76092397  0.42745895  1.0000
  La  La29      1.0  0.63334227  0.24492626  0.4261201  1.0000
  La  La30      1.0  0.12391996  0.2709574  0.42818975  1.0000
  La  La31      1.0  0.76227497  0.01299064  0.44829637000000006  1.0000
  La  La32      1.0  0.26481568000000005  0.51600254  0.4498899600000001  1.0000
  Zr  Zr1       1.0  0.9834761000000001  0.00452759  0.24105945000000004  1.0000
  Zr  Zr2       1.0  0.51345396  0.025413819999999997  0.24265509  1.0000
  Zr  Zr3       1.0  0.49949124  0.50516318  0.24116801000000002  1.0000
  Zr  Zr4       1.0  0.01879386  0.48923587999999996  0.23995439000000002  1.0000
  Zr  Zr5       1.0  0.76444483  0.25415804  0.29288764  1.0000
  Zr  Zr6       1.0  0.75469417  0.7627311  0.29002794  1.0000
  Zr  Zr7       1.0  0.25324462  0.23610087  0.28917082  1.0000
  Zr  Zr8       1.0  0.25329976  0.76408683  0.29031944  1.0000
  Zr  Zr9       1.0  0.50878419  0.50967143  0.33505178  1.0000
  Zr  Zr10      1.0  0.00998963  0.50666331  0.33496223  1.0000
  Zr  Zr11      1.0  0.013320950000000002  0.0037206500000000007  0.3388185900000001  1.0000
  Zr  Zr12      1.0  0.50187026  0.002204539999999922  0.33897943000000014  1.0000
  Zr  Zr13      1.0  0.24980128  0.74414124  0.38372929  1.0000
  Zr  Zr14      1.0  0.25087237  0.27396551  0.38380286000000013  1.0000
  Zr  Zr15      1.0  0.7608839  0.7542192  0.38434808  1.0000
  Zr  Zr16      1.0  0.76153414  0.253392  0.3814940400000001  1.0000
  Zr  Zr17      1.0  0.020490490000000004  0.0166009  0.4296556700000001  1.0000
  Zr  Zr18      1.0  0.49541679  0.00810483  0.4293617  1.0000
  Zr  Zr19      1.0  0.51428117  0.48123  0.42995528  1.0000
  Zr  Zr20      1.0  0.99042077  0.50385551  0.43264179  1.0000
  O   O1        1.0  0.83807457  0.94574694  0.23806331000000003  1.0000
  O   O2        1.0  0.66217724  0.08092684  0.23793586000000003  1.0000
  O   O3        1.0  0.17021926  0.4226181  0.23781006  1.0000
  O   O4        1.0  0.34873271000000006  0.54648448  0.23651111  1.0000
  O   O5        1.0  0.3707247700000001  0.95668023  0.24994483  1.0000
  O   O6        1.0  0.14167588  0.05322038  0.24239937000000003  1.0000
  O   O7        1.0  0.65330733  0.45913815  0.25390622000000007  1.0000
  O   O8        1.0  0.8799342  0.5432065  0.2516591900000001  1.0000
  O   O9        1.0  0.48831922  0.15904369  0.25891602000000014  1.0000
  O   O10       1.0  0.02814996000000001  0.8526957799999999  0.24291444  1.0000
  O   O11       1.0  0.99302188  0.34725179  0.25554336  1.0000
  O   O12       1.0  0.52711506  0.6530473599999999  0.2540064  1.0000
  O   O13       1.0  0.79963102  0.18768643999999998  0.26669443  1.0000
  O   O14       1.0  0.72228108  0.8133177  0.26239937  1.0000
  O   O15       1.0  0.28827117  0.24964635  0.2586297200000001  1.0000
  O   O16       1.0  0.23055513  0.71223311  0.26189094000000007  1.0000
  O   O17       1.0  0.96207579  0.0177367  0.26989629  1.0000
  O   O18       1.0  0.57624419  0.9877000399999999  0.27422284  1.0000
  O   O19       1.0  0.07761853000000002  0.53691514  0.27199449  1.0000
  O   O20       1.0  0.4385638000000001  0.47119574  0.27268886  1.0000
  O   O21       1.0  0.10297703  0.20391809  0.27932706  1.0000
  O   O22       1.0  0.3995075600000001  0.80553166  0.28039062000000003  1.0000
  O   O23       1.0  0.61893478  0.29026117  0.2830378600000001  1.0000
  O   O24       1.0  0.90420018  0.73363039  0.27922477  1.0000
  O   O25       1.0  0.29317668  0.08449889  0.2846089300000001  1.0000
  O   O26       1.0  0.18632909000000003  0.89974839  0.28053512  1.0000
  O   O27       1.0  0.82915818  0.39335617999999994  0.28812623000000004  1.0000
  O   O28       1.0  0.69488275  0.62205566  0.28517357  1.0000
  O   O29       1.0  0.20991313000000003  0.38411548  0.29069658  1.0000
  O   O30       1.0  0.31660581  0.62424402  0.29415984  1.0000
  O   O31       1.0  0.7038299400000002  0.11070013  0.30063738  1.0000
  O   O32       1.0  0.80969123  0.91130369  0.29692204  1.0000
  O   O33       1.0  0.40210931  0.2705759  0.30086055  1.0000
  O   O34       1.0  0.10199988  0.73418395  0.30214059  1.0000
  O   O35       1.0  0.9107725700000002  0.20291284  0.3033862  1.0000
  O   O36       1.0  0.6112245500000002  0.8014603599999999  0.30252924  1.0000
  O   O37       1.0  0.9578865000000001  0.54359982  0.30653559  1.0000
  O   O38       1.0  0.55871926  0.4799645  0.30673208  1.0000
  O   O39       1.0  0.0702665  0.0177343  0.31094604  1.0000
  O   O40       1.0  0.44754455  0.98887027  0.31121092  1.0000
  O   O41       1.0  0.72758475  0.31866173  0.32105925  1.0000
  O   O42       1.0  0.79616281  0.70237944  0.31798595  1.0000
  O   O43       1.0  0.22799883000000004  0.19102022  0.31865819  1.0000
  O   O44       1.0  0.2729985  0.82687349  0.3190877800000001  1.0000
  O   O45       1.0  0.03789191  0.3595176199999999  0.32687632  1.0000
  O   O46       1.0  0.4734429400000001  0.65874276  0.32793388  1.0000
  O   O47       1.0  0.53837831  0.15255032  0.33381354  1.0000
  O   O48       1.0  0.97675517  0.85499838  0.33122851  1.0000
  O   O49       1.0  0.35787059000000004  0.45448773  0.3282981400000001  1.0000
  O   O50       1.0  0.15841189000000006  0.5530534  0.32712398  1.0000
  O   O51       1.0  0.65423249  0.95782902  0.3341627700000001  1.0000
  O   O52       1.0  0.86086926  0.03931889  0.33396407  1.0000
  O   O53       1.0  0.85953717  0.46212224  0.34128461000000004  1.0000
  O   O54       1.0  0.6597836100000002  0.56076986  0.34124364  1.0000
  O   O55       1.0  0.15718105  0.95816914  0.34886312000000014  1.0000
  O   O56       1.0  0.35494213  0.05415334  0.34771053  1.0000
  O   O57       1.0  0.9709571200000001  0.64788256  0.34747836  1.0000
  O   O58       1.0  0.54365075  0.36650255  0.34580134  1.0000
  O   O59       1.0  0.4791511500000001  0.85191053  0.34819393  1.0000
  O   O60       1.0  0.038115180000000005  0.15171023999999997  0.34845403000000014  1.0000
  O   O61       1.0  0.27475487  0.68122908  0.35654837  1.0000
  O   O62       1.0  0.2207528  0.31453375  0.3554376500000001  1.0000
  O   O63       1.0  0.7946372100000002  0.81054125  0.35669794  1.0000
  O   O64       1.0  0.7276442700000001  0.18397187  0.35524791  1.0000
  O   O65       1.0  0.45493313000000013  0.53685314  0.36419242  1.0000
  O   O66       1.0  0.07155393000000002  0.48792765  0.3640765  1.0000
  O   O67       1.0  0.55532563  0.025961270000000005  0.3692715100000001  1.0000
  O   O68       1.0  0.9545420600000002  0.97375768  0.36883631  1.0000
  O   O69       1.0  0.60911132  0.71478128  0.37729555  1.0000
  O   O70       1.0  0.91126356  0.29763714  0.37248378  1.0000
  O   O71       1.0  0.10362208000000002  0.77928409  0.3738630400000001  1.0000
  O   O72       1.0  0.40091259000000007  0.23878808  0.3759969400000001  1.0000
  O   O73       1.0  0.8029879200000002  0.6043222199999999  0.37841793  1.0000
  O   O74       1.0  0.71373548  0.40051946  0.37570322  1.0000
  O   O75       1.0  0.3234603900000001  0.8831982099999999  0.38099473  1.0000
  O   O76       1.0  0.19983948000000007  0.12654889  0.38319714  1.0000
  O   O77       1.0  0.71072131  0.8955402  0.39124243  1.0000
  O   O78       1.0  0.8213091900000001  0.12048367  0.39144621  1.0000
  O   O79       1.0  0.18436572  0.61224549  0.39451067  1.0000
  O   O80       1.0  0.29225029  0.42339656  0.38805611  1.0000
  O   O81       1.0  0.91295719  0.78168874  0.39517499  1.0000
  O   O82       1.0  0.61293464  0.2235396  0.39089235  1.0000
  O   O83       1.0  0.3937418600000001  0.69834943  0.39574485  1.0000
  O   O84       1.0  0.10056732  0.30733061  0.39435378  1.0000
  O   O85       1.0  0.43304401  0.05305984  0.40234653  1.0000
  O   O86       1.0  0.07374506  0.97116934  0.40179401  1.0000
  O   O87       1.0  0.58062418  0.52456536  0.40223009  1.0000
  O   O88       1.0  0.9521898200000002  0.48840397  0.40393082  1.0000
  O   O89       1.0  0.22208943000000006  0.80531052  0.41268844  1.0000
  O   O90       1.0  0.28738366000000004  0.25610598  0.41484537  1.0000
  O   O91       1.0  0.73656068  0.70826954  0.41376683  1.0000
  O   O92       1.0  0.79139538  0.31727309  0.4102971600000001  1.0000
  O   O93       1.0  0.52791239  0.85594178  0.4208149800000001  1.0000
  O   O94       1.0  0.99153994  0.1590947  0.41966184  1.0000
  O   O95       1.0  0.02254975  0.65116668  0.4300393500000001  1.0000
  O   O96       1.0  0.48152237000000003  0.34366581  0.41675884  1.0000
  O   O97       1.0  0.8737837300000002  0.96107737  0.4226204200000001  1.0000
  O   O98       1.0  0.6415336000000003  0.052064679999999995  0.4209649  1.0000
  O   O99       1.0  0.1408041  0.4563575  0.4289598800000001  1.0000
  O   O100      1.0  0.36917695  0.52315089  0.42338581  1.0000
  O   O101      1.0  0.35143227  0.94384631  0.4359942100000001  1.0000
  O   O102      1.0  0.16974014  0.06198241  0.43614842  1.0000
  O   O103      1.0  0.6430630300000001  0.4027876899999999  0.43984034  1.0000
  O   O104      1.0  0.8338124500000001  0.52145362  0.43862106  1.0000
  O   O105      1.0  0.41452671  0.09152578  0.22389490000000004  1.0000
  O   O106      1.0  0.58636107  0.52376778  0.21786068000000006  1.0000
  O   O107      1.0  0.93470526  0.44128976  0.21780136  1.0000
  O   O108      1.0  0.24496836000000005  0.83111112  0.22787677000000003  1.0000
  O   O109      1.0  0.73454241  0.66855506  0.23067442  1.0000
  O   O110      1.0  0.77262164  0.30211578  0.22954272  1.0000
  O   O111      1.0  0.56194081  0.8826618  0.23668718  1.0000
  O   O112      1.0  0.9477485100000003  0.14740021  0.23410195000000003  1.0000
  O   O113      1.0  0.0823051  0.62061668  0.23214076000000006  1.0000
  O   O114      1.0  0.4649519000000001  0.35496497  0.23798517000000002  1.0000
  O   O115      1.0  0.45586383000000014  0.14569077  0.43942122  1.0000
  O   O116      1.0  0.05261150000000001  0.8697362  0.4395426200000001  1.0000
  O   O117      1.0  0.9703320500000001  0.3509139  0.44220240000000005  1.0000
  O   O118      1.0  0.58114828  0.61426149  0.4389405500000001  1.0000
  O   O119      1.0  0.78119564  0.18371314  0.4433557  1.0000
  O   O120      1.0  0.72886945  0.83864964  0.44507113000000004  1.0000
  O   O121      1.0  0.24553978  0.67813827  0.44579211  1.0000
  O   O122      1.0  0.96757474  0.05777959  0.45714569  1.0000
  O   O123      1.0  0.5566588  0.97933351  0.45738494  1.0000
  O   O124      1.0  0.4514174400000001  0.47650298  0.45895745  1.0000
